
 OpenBabel09262513003D

 35 36  0  0  0  0  0  0  0  0999 V2000
    0.9738   -0.0871   -0.0416 C   0  0  0  0  0  0  0  0  0  0  0  0
    0.5004   -1.3943   -0.3307 O   0  0  0  0  0  0  0  0  0  0  0  0
    0.8435   -2.0180   -1.5594 C   0  0  0  0  0  0  0  0  0  0  0  0
   -0.2056   -2.5361   -2.3007 C   0  0  0  0  0  0  0  0  0  0  0  0
    0.2043   -3.2749   -3.4357 C   0  0  0  0  0  0  0  0  0  0  0  0
   -0.8080   -4.2134   -4.0719 C   0  0  0  0  0  0  0  0  0  0  0  0
   -2.0589   -4.3209   -3.5482 C   0  0  0  0  0  0  0  0  0  0  0  0
   -3.0712   -5.2595   -4.1844 C   0  0  0  0  0  0  0  0  0  0  0  0
   -4.3690   -4.8586   -4.4554 C   0  0  0  0  0  0  0  0  0  0  0  0
   -5.2324   -5.9189   -4.8191 C   0  0  0  0  0  0  0  0  0  0  0  0
   -4.8277   -7.1082   -5.2262 C   0  0  0  0  0  0  0  0  0  0  0  0
   -5.7065   -8.0163   -5.8740 O   0  0  0  0  0  0  0  0  0  0  0  0
   -3.5171   -7.4182   -4.9904 C   0  0  0  0  0  0  0  0  0  0  0  0
   -2.6423   -6.4727   -4.5123 C   0  0  0  0  0  0  0  0  0  0  0  0
    1.4052   -3.2056   -3.9807 C   0  0  0  0  0  0  0  0  0  0  0  0
    2.3833   -2.6211   -3.2249 C   0  0  0  0  0  0  0  0  0  0  0  0
    3.7309   -2.6633   -3.6703 O   0  0  0  0  0  0  0  0  0  0  0  0
    4.7547   -2.0596   -2.8933 C   0  0  0  0  0  0  0  0  0  0  0  0
    2.0809   -1.9936   -2.0406 C   0  0  0  0  0  0  0  0  0  0  0  0
    0.6171    0.2168    0.9203 H   0  0  0  0  0  0  0  0  0  0  0  0
    0.6171    0.5941   -0.7857 H   0  0  0  0  0  0  0  0  0  0  0  0
    2.0438   -0.0871   -0.0416 H   0  0  0  0  0  0  0  0  0  0  0  0
   -1.2329   -2.3908   -2.0388 H   0  0  0  0  0  0  0  0  0  0  0  0
   -0.5366   -4.7896   -4.9317 H   0  0  0  0  0  0  0  0  0  0  0  0
   -2.3302   -3.7447   -2.6884 H   0  0  0  0  0  0  0  0  0  0  0  0
   -4.6896   -3.8395   -4.3951 H   0  0  0  0  0  0  0  0  0  0  0  0
   -6.2866   -5.7449   -4.7603 H   0  0  0  0  0  0  0  0  0  0  0  0
   -5.3715   -8.9104   -6.1712 H   0  0  0  0  0  0  0  0  0  0  0  0
   -3.1677   -8.4114   -5.1809 H   0  0  0  0  0  0  0  0  0  0  0  0
   -1.6061   -6.7161   -4.4033 H   0  0  0  0  0  0  0  0  0  0  0  0
    1.6022   -3.5864   -4.9611 H   0  0  0  0  0  0  0  0  0  0  0  0
    4.5509   -1.0148   -2.7848 H   0  0  0  0  0  0  0  0  0  0  0  0
    4.7872   -2.5189   -1.9275 H   0  0  0  0  0  0  0  0  0  0  0  0
    5.6975   -2.1901   -3.3823 H   0  0  0  0  0  0  0  0  0  0  0  0
    2.8494   -1.4806   -1.5011 H   0  0  0  0  0  0  0  0  0  0  0  0
  1  2  1  0  0  0  0
  1 20  1  0  0  0  0
  1 21  1  0  0  0  0
  1 22  1  0  0  0  0
  2  3  1  0  0  0  0
  3  4  1  0  0  0  0
  3 19  2  0  0  0  0
  4  5  2  0  0  0  0
  4 23  1  0  0  0  0
  5  6  1  0  0  0  0
  5 15  1  0  0  0  0
  6  7  2  0  0  0  0
  6 24  1  0  0  0  0
  7  8  1  0  0  0  0
  7 25  1  0  0  0  0
  8  9  1  0  0  0  0
  8 14  2  0  0  0  0
  9 10  2  0  0  0  0
  9 26  1  0  0  0  0
 10 11  1  0  0  0  0
 10 27  1  0  0  0  0
 11 12  1  0  0  0  0
 11 13  2  0  0  0  0
 12 28  1  0  0  0  0
 13 14  1  0  0  0  0
 13 29  1  0  0  0  0
 14 30  1  0  0  0  0
 15 16  2  0  0  0  0
 15 31  1  0  0  0  0
 16 17  1  0  0  0  0
 16 19  1  0  0  0  0
 17 18  1  0  0  0  0
 18 32  1  0  0  0  0
 18 33  1  0  0  0  0
 18 34  1  0  0  0  0
 19 35  1  0  0  0  0
M  END
