
 OpenBabel09262513003D

 31 33  0  0  0  0  0  0  0  0999 V2000
    0.9894   -0.0967    0.0230 C   0  0  0  0  0  0  0  0  0  0  0  0
    0.5160   -1.3098   -0.5433 O   0  0  0  0  0  0  0  0  0  0  0  0
    0.8591   -1.6516   -1.8782 C   0  0  0  0  0  0  0  0  0  0  0  0
   -0.0791   -2.2171   -2.7152 C   0  0  0  0  0  0  0  0  0  0  0  0
    0.2867   -2.6307   -3.9885 C   0  0  0  0  0  0  0  0  0  0  0  0
    1.5856   -2.4884   -4.4374 C   0  0  0  0  0  0  0  0  0  0  0  0
    2.5105   -1.9229   -3.5737 C   0  0  0  0  0  0  0  0  0  0  0  0
    2.1834   -1.4919   -2.3042 C   0  0  0  0  0  0  0  0  0  0  0  0
    3.2096   -0.8881   -1.4175 C   0  0  0  0  0  0  0  0  0  0  0  0
    2.8789   -0.5164   -0.2894 O   0  0  0  0  0  0  0  0  0  0  0  0
    4.5486   -0.8147   -1.9666 C   0  0  0  0  0  0  0  0  0  0  0  0
    4.7814   -1.3315   -3.2604 C   0  0  0  0  0  0  0  0  0  0  0  0
    3.8046   -1.8213   -4.0520 O   0  0  0  0  0  0  0  0  0  0  0  0
    6.2067   -1.3362   -3.7884 C   0  0  0  0  0  0  0  0  0  0  0  0
    6.5047   -0.6365   -4.9461 C   0  0  0  0  0  0  0  0  0  0  0  0
    7.7711   -0.9485   -5.4946 C   0  0  0  0  0  0  0  0  0  0  0  0
    8.7463   -1.5467   -4.8349 C   0  0  0  0  0  0  0  0  0  0  0  0
    8.4003   -2.1617   -3.6638 C   0  0  0  0  0  0  0  0  0  0  0  0
    7.1427   -2.0110   -3.1312 C   0  0  0  0  0  0  0  0  0  0  0  0
    0.6327   -0.0093    1.0280 H   0  0  0  0  0  0  0  0  0  0  0  0
    0.6327    0.7299   -0.5553 H   0  0  0  0  0  0  0  0  0  0  0  0
    2.0594   -0.0967    0.0230 H   0  0  0  0  0  0  0  0  0  0  0  0
   -1.0892   -2.3371   -2.3833 H   0  0  0  0  0  0  0  0  0  0  0  0
   -0.4485   -3.0664   -4.6324 H   0  0  0  0  0  0  0  0  0  0  0  0
    1.8683   -2.8044   -5.4198 H   0  0  0  0  0  0  0  0  0  0  0  0
    5.3459   -0.3772   -1.4028 H   0  0  0  0  0  0  0  0  0  0  0  0
    5.8377    0.0753   -5.3857 H   0  0  0  0  0  0  0  0  0  0  0  0
    7.9512   -0.6812   -6.5149 H   0  0  0  0  0  0  0  0  0  0  0  0
    9.7530   -1.5499   -5.1974 H   0  0  0  0  0  0  0  0  0  0  0  0
    9.1192   -2.7690   -3.1546 H   0  0  0  0  0  0  0  0  0  0  0  0
    6.9154   -2.4414   -2.1783 H   0  0  0  0  0  0  0  0  0  0  0  0
  1  2  1  0  0  0  0
  1 20  1  0  0  0  0
  1 21  1  0  0  0  0
  1 22  1  0  0  0  0
  2  3  1  0  0  0  0
  3  4  2  0  0  0  0
  3  8  1  0  0  0  0
  4  5  1  0  0  0  0
  4 23  1  0  0  0  0
  5  6  2  0  0  0  0
  5 24  1  0  0  0  0
  6  7  1  0  0  0  0
  6 25  1  0  0  0  0
  7  8  2  0  0  0  0
  7 13  1  0  0  0  0
  8  9  1  0  0  0  0
  9 10  2  0  0  0  0
  9 11  1  0  0  0  0
 11 12  2  0  0  0  0
 11 26  1  0  0  0  0
 12 13  1  0  0  0  0
 12 14  1  0  0  0  0
 14 15  2  0  0  0  0
 14 19  1  0  0  0  0
 15 16  1  0  0  0  0
 15 27  1  0  0  0  0
 16 17  2  0  0  0  0
 16 28  1  0  0  0  0
 17 18  1  0  0  0  0
 17 29  1  0  0  0  0
 18 19  2  0  0  0  0
 18 30  1  0  0  0  0
 19 31  1  0  0  0  0
M  END
