
 OpenBabel09262513003D

 44 45  0  0  0  0  0  0  0  0999 V2000
    1.0125    0.0292    0.0948 C   0  0  0  0  0  0  0  0  0  0  0  0
    0.5392   -1.0329   -0.7201 O   0  0  0  0  0  0  0  0  0  0  0  0
    0.8822   -1.0784   -2.0973 C   0  0  0  0  0  0  0  0  0  0  0  0
   -0.0988   -1.3636   -3.0327 C   0  0  0  0  0  0  0  0  0  0  0  0
    0.4064   -1.6654   -4.3194 C   0  0  0  0  0  0  0  0  0  0  0  0
    1.6247   -1.3692   -4.7342 C   0  0  0  0  0  0  0  0  0  0  0  0
    2.0002   -1.4043   -6.2066 C   0  0  0  0  0  0  0  0  0  0  0  0
    1.0698   -1.7479   -7.1378 C   0  0  0  0  0  0  0  0  0  0  0  0
    1.4453   -1.7831   -8.6103 C   0  0  0  0  0  0  0  0  0  0  0  0
    0.5761   -2.1041   -9.4802 O   0  0  0  0  0  0  0  0  0  0  0  0
    2.8602   -1.4344   -9.0424 C   0  0  0  0  0  0  0  0  0  0  0  0
    3.0563   -0.5907  -10.1232 C   0  0  0  0  0  0  0  0  0  0  0  0
    4.3879   -0.5714  -10.6013 C   0  0  0  0  0  0  0  0  0  0  0  0
    4.6140   -0.0592  -11.9062 O   0  0  0  0  0  0  0  0  0  0  0  0
    5.9315   -0.0173  -12.4341 C   0  0  0  0  0  0  0  0  0  0  0  0
    5.4351   -0.9966   -9.9182 C   0  0  0  0  0  0  0  0  0  0  0  0
    6.7623   -0.6687  -10.3022 O   0  0  0  0  0  0  0  0  0  0  0  0
    7.8607   -1.1467   -9.5397 C   0  0  0  0  0  0  0  0  0  0  0  0
    5.1726   -1.7695   -8.8213 C   0  0  0  0  0  0  0  0  0  0  0  0
    6.2448   -2.4027   -8.1386 O   0  0  0  0  0  0  0  0  0  0  0  0
    5.9837   -3.2076   -6.9983 C   0  0  0  0  0  0  0  0  0  0  0  0
    3.8864   -1.9424   -8.3700 C   0  0  0  0  0  0  0  0  0  0  0  0
    2.5302   -1.0291   -3.7678 C   0  0  0  0  0  0  0  0  0  0  0  0
    2.1367   -0.8440   -2.4644 C   0  0  0  0  0  0  0  0  0  0  0  0
    0.6559   -0.1024    1.0950 H   0  0  0  0  0  0  0  0  0  0  0  0
    0.6559    0.9612   -0.2913 H   0  0  0  0  0  0  0  0  0  0  0  0
    2.0825    0.0292    0.0948 H   0  0  0  0  0  0  0  0  0  0  0  0
   -1.1438   -1.3564   -2.8030 H   0  0  0  0  0  0  0  0  0  0  0  0
   -0.2438   -2.1687   -5.0041 H   0  0  0  0  0  0  0  0  0  0  0  0
    2.9962   -1.1588   -6.5108 H   0  0  0  0  0  0  0  0  0  0  0  0
    0.0738   -1.9934   -6.8336 H   0  0  0  0  0  0  0  0  0  0  0  0
    2.2719   -0.0065  -10.5574 H   0  0  0  0  0  0  0  0  0  0  0  0
    6.5479    0.5922  -11.8068 H   0  0  0  0  0  0  0  0  0  0  0  0
    6.3321   -1.0088  -12.4726 H   0  0  0  0  0  0  0  0  0  0  0  0
    5.9075    0.3961  -13.4207 H   0  0  0  0  0  0  0  0  0  0  0  0
    7.7842   -0.7819   -8.5367 H   0  0  0  0  0  0  0  0  0  0  0  0
    7.8507   -2.2166   -9.5317 H   0  0  0  0  0  0  0  0  0  0  0  0
    8.7747   -0.8017   -9.9760 H   0  0  0  0  0  0  0  0  0  0  0  0
    5.5111   -2.6144   -6.2436 H   0  0  0  0  0  0  0  0  0  0  0  0
    5.3386   -4.0160   -7.2725 H   0  0  0  0  0  0  0  0  0  0  0  0
    6.9047   -3.5990   -6.6196 H   0  0  0  0  0  0  0  0  0  0  0  0
    3.7101   -2.4914   -7.4687 H   0  0  0  0  0  0  0  0  0  0  0  0
    3.5601   -0.9053   -4.0302 H   0  0  0  0  0  0  0  0  0  0  0  0
    2.8475   -0.5081   -1.7386 H   0  0  0  0  0  0  0  0  0  0  0  0
  1  2  1  0  0  0  0
  1 25  1  0  0  0  0
  1 26  1  0  0  0  0
  1 27  1  0  0  0  0
  2  3  1  0  0  0  0
  3  4  1  0  0  0  0
  3 24  2  0  0  0  0
  4  5  2  0  0  0  0
  4 28  1  0  0  0  0
  5  6  1  0  0  0  0
  5 29  1  0  0  0  0
  6  7  1  0  0  0  0
  6 23  2  0  0  0  0
  7  8  2  0  0  0  0
  7 30  1  0  0  0  0
  8  9  1  0  0  0  0
  8 31  1  0  0  0  0
  9 10  2  0  0  0  0
  9 11  1  0  0  0  0
 11 12  1  0  0  0  0
 11 22  2  0  0  0  0
 12 13  2  0  0  0  0
 12 32  1  0  0  0  0
 13 14  1  0  0  0  0
 13 16  1  0  0  0  0
 14 15  1  0  0  0  0
 15 33  1  0  0  0  0
 15 34  1  0  0  0  0
 15 35  1  0  0  0  0
 16 17  1  0  0  0  0
 16 19  2  0  0  0  0
 17 18  1  0  0  0  0
 18 36  1  0  0  0  0
 18 37  1  0  0  0  0
 18 38  1  0  0  0  0
 19 20  1  0  0  0  0
 19 22  1  0  0  0  0
 20 21  1  0  0  0  0
 21 39  1  0  0  0  0
 21 40  1  0  0  0  0
 21 41  1  0  0  0  0
 22 42  1  0  0  0  0
 23 24  1  0  0  0  0
 23 43  1  0  0  0  0
 24 44  1  0  0  0  0
M  END
