
 OpenBabel09262513003D

 34 35  0  0  0  0  0  0  0  0999 V2000
    0.9262   -0.0643   -0.0204 C   0  0  0  0  0  0  0  0  0  0  0  0
    0.4529   -1.3274   -0.4641 O   0  0  0  0  0  0  0  0  0  0  0  0
    1.0516   -2.4211    0.0598 C   0  0  0  0  0  0  0  0  0  0  0  0
    0.6600   -3.6488   -0.4184 C   0  0  0  0  0  0  0  0  0  0  0  0
    1.2554   -4.7998    0.0602 C   0  0  0  0  0  0  0  0  0  0  0  0
    0.8335   -6.1537   -0.4869 C   0  0  0  0  0  0  0  0  0  0  0  0
   -0.1286   -6.2302   -1.4457 C   0  0  0  0  0  0  0  0  0  0  0  0
   -0.5505   -7.5841   -1.9927 C   0  0  0  0  0  0  0  0  0  0  0  0
   -1.4493   -7.6555   -2.8884 O   0  0  0  0  0  0  0  0  0  0  0  0
    0.1025   -8.8526   -1.4685 C   0  0  0  0  0  0  0  0  0  0  0  0
    0.2497   -8.9463   -0.1020 C   0  0  0  0  0  0  0  0  0  0  0  0
    0.8879  -10.0461    0.4809 C   0  0  0  0  0  0  0  0  0  0  0  0
    1.3570  -11.0602   -0.3794 C   0  0  0  0  0  0  0  0  0  0  0  0
    1.9649  -12.1706    0.0964 O   0  0  0  0  0  0  0  0  0  0  0  0
    1.2305  -10.9412   -1.7429 C   0  0  0  0  0  0  0  0  0  0  0  0
    0.5947   -9.8414   -2.2855 C   0  0  0  0  0  0  0  0  0  0  0  0
    2.2273   -4.7260    1.0284 C   0  0  0  0  0  0  0  0  0  0  0  0
    2.6069   -3.5032    1.5368 C   0  0  0  0  0  0  0  0  0  0  0  0
    2.0250   -2.3181    1.0749 C   0  0  0  0  0  0  0  0  0  0  0  0
    2.4009   -1.0570    1.6087 O   0  0  0  0  0  0  0  0  0  0  0  0
    0.5695    0.1220    0.9711 H   0  0  0  0  0  0  0  0  0  0  0  0
    0.5695    0.7011   -0.6775 H   0  0  0  0  0  0  0  0  0  0  0  0
    1.9962   -0.0643   -0.0204 H   0  0  0  0  0  0  0  0  0  0  0  0
   -0.1068   -3.7130   -1.1620 H   0  0  0  0  0  0  0  0  0  0  0  0
    1.2932   -7.0467   -0.1178 H   0  0  0  0  0  0  0  0  0  0  0  0
   -0.5883   -5.3372   -1.8147 H   0  0  0  0  0  0  0  0  0  0  0  0
   -0.1301   -8.1655    0.5233 H   0  0  0  0  0  0  0  0  0  0  0  0
    1.0155  -10.1153    1.5410 H   0  0  0  0  0  0  0  0  0  0  0  0
    2.0770  -12.2958    1.0821 H   0  0  0  0  0  0  0  0  0  0  0  0
    1.6249  -11.7012   -2.3846 H   0  0  0  0  0  0  0  0  0  0  0  0
    0.4851   -9.7592   -3.3467 H   0  0  0  0  0  0  0  0  0  0  0  0
    2.6906   -5.6207    1.3886 H   0  0  0  0  0  0  0  0  0  0  0  0
    3.3587   -3.4594    2.2969 H   0  0  0  0  0  0  0  0  0  0  0  0
    1.9731   -0.2210    1.2651 H   0  0  0  0  0  0  0  0  0  0  0  0
  1  2  1  0  0  0  0
  1 21  1  0  0  0  0
  1 22  1  0  0  0  0
  1 23  1  0  0  0  0
  2  3  1  0  0  0  0
  3  4  1  0  0  0  0
  3 19  2  0  0  0  0
  4  5  2  0  0  0  0
  4 24  1  0  0  0  0
  5  6  1  0  0  0  0
  5 17  1  0  0  0  0
  6  7  2  0  0  0  0
  6 25  1  0  0  0  0
  7  8  1  0  0  0  0
  7 26  1  0  0  0  0
  8  9  2  0  0  0  0
  8 10  1  0  0  0  0
 10 11  1  0  0  0  0
 10 16  2  0  0  0  0
 11 12  2  0  0  0  0
 11 27  1  0  0  0  0
 12 13  1  0  0  0  0
 12 28  1  0  0  0  0
 13 14  1  0  0  0  0
 13 15  2  0  0  0  0
 14 29  1  0  0  0  0
 15 16  1  0  0  0  0
 15 30  1  0  0  0  0
 16 31  1  0  0  0  0
 17 18  2  0  0  0  0
 17 32  1  0  0  0  0
 18 19  1  0  0  0  0
 18 33  1  0  0  0  0
 19 20  1  0  0  0  0
 20 34  1  0  0  0  0
M  END
