
 OpenBabel09262513003D

 32 33  0  0  0  0  0  0  0  0999 V2000
    0.9015    0.0149   -0.0091 C   0  0  0  0  0  0  0  0  0  0  0  0
    0.4282   -0.7473    1.0916 O   0  0  0  0  0  0  0  0  0  0  0  0
    0.7712   -2.1207    1.2041 C   0  0  0  0  0  0  0  0  0  0  0  0
   -0.2043   -3.0492    1.5279 C   0  0  0  0  0  0  0  0  0  0  0  0
    0.3085   -4.3190    1.8838 C   0  0  0  0  0  0  0  0  0  0  0  0
    1.5296   -4.7383    1.6060 C   0  0  0  0  0  0  0  0  0  0  0  0
    1.9140   -6.2057    1.7033 C   0  0  0  0  0  0  0  0  0  0  0  0
    0.9890   -7.1272    2.0852 C   0  0  0  0  0  0  0  0  0  0  0  0
   -0.4288   -6.6896    2.4146 C   0  0  0  0  0  0  0  0  0  0  0  0
   -1.0565   -7.1740    3.5504 C   0  0  0  0  0  0  0  0  0  0  0  0
   -2.4472   -6.9165    3.5908 C   0  0  0  0  0  0  0  0  0  0  0  0
   -3.2351   -7.6826    4.4900 O   0  0  0  0  0  0  0  0  0  0  0  0
   -3.0634   -6.0131    2.8504 C   0  0  0  0  0  0  0  0  0  0  0  0
   -2.3647   -5.5229    1.7823 C   0  0  0  0  0  0  0  0  0  0  0  0
   -3.0190   -4.6803    0.8451 O   0  0  0  0  0  0  0  0  0  0  0  0
   -1.0384   -5.8338    1.6027 C   0  0  0  0  0  0  0  0  0  0  0  0
    2.4294   -3.7815    1.2262 C   0  0  0  0  0  0  0  0  0  0  0  0
    2.0281   -2.4895    0.9862 C   0  0  0  0  0  0  0  0  0  0  0  0
    0.5449    1.0203    0.0736 H   0  0  0  0  0  0  0  0  0  0  0  0
    0.5449   -0.4162   -0.9211 H   0  0  0  0  0  0  0  0  0  0  0  0
    1.9715    0.0149   -0.0091 H   0  0  0  0  0  0  0  0  0  0  0  0
   -1.2507   -2.8264    1.5104 H   0  0  0  0  0  0  0  0  0  0  0  0
   -0.3380   -4.9858    2.4150 H   0  0  0  0  0  0  0  0  0  0  0  0
    2.9121   -6.5138    1.4715 H   0  0  0  0  0  0  0  0  0  0  0  0
    1.2596   -8.1602    2.1537 H   0  0  0  0  0  0  0  0  0  0  0  0
   -0.5368   -7.6956    4.3268 H   0  0  0  0  0  0  0  0  0  0  0  0
   -4.2215   -7.5288    4.5464 H   0  0  0  0  0  0  0  0  0  0  0  0
   -4.0562   -5.6826    3.0743 H   0  0  0  0  0  0  0  0  0  0  0  0
   -2.5148   -4.3178    0.0613 H   0  0  0  0  0  0  0  0  0  0  0  0
   -0.4918   -5.3821    0.8013 H   0  0  0  0  0  0  0  0  0  0  0  0
    3.4610   -4.0426    1.1142 H   0  0  0  0  0  0  0  0  0  0  0  0
    2.7347   -1.7741    0.6205 H   0  0  0  0  0  0  0  0  0  0  0  0
  1  2  1  0  0  0  0
  1 19  1  0  0  0  0
  1 20  1  0  0  0  0
  1 21  1  0  0  0  0
  2  3  1  0  0  0  0
  3  4  1  0  0  0  0
  3 18  2  0  0  0  0
  4  5  2  0  0  0  0
  4 22  1  0  0  0  0
  5  6  1  0  0  0  0
  5 23  1  0  0  0  0
  6  7  1  0  0  0  0
  6 17  2  0  0  0  0
  7  8  2  0  0  0  0
  7 24  1  0  0  0  0
  8  9  1  0  0  0  0
  8 25  1  0  0  0  0
  9 10  1  0  0  0  0
  9 16  2  0  0  0  0
 10 11  2  0  0  0  0
 10 26  1  0  0  0  0
 11 12  1  0  0  0  0
 11 13  1  0  0  0  0
 12 27  1  0  0  0  0
 13 14  2  0  0  0  0
 13 28  1  0  0  0  0
 14 15  1  0  0  0  0
 14 16  1  0  0  0  0
 15 29  1  0  0  0  0
 16 30  1  0  0  0  0
 17 18  1  0  0  0  0
 17 31  1  0  0  0  0
 18 32  1  0  0  0  0
M  END
