
 OpenBabel09262513003D

 45 46  0  0  0  0  0  0  0  0999 V2000
    1.0648   -0.0417   -0.0637 C   0  0  0  0  0  0  0  0  0  0  0  0
    0.5915   -0.5019    1.1935 O   0  0  0  0  0  0  0  0  0  0  0  0
    0.7230   -1.8139    1.4940 C   0  0  0  0  0  0  0  0  0  0  0  0
    0.3605   -2.2145    2.7578 C   0  0  0  0  0  0  0  0  0  0  0  0
    0.4480   -3.5466    3.1133 C   0  0  0  0  0  0  0  0  0  0  0  0
    0.0262   -3.9877    4.5054 C   0  0  0  0  0  0  0  0  0  0  0  0
   -0.4363   -3.0714    5.3983 C   0  0  0  0  0  0  0  0  0  0  0  0
   -0.8581   -3.5124    6.7904 C   0  0  0  0  0  0  0  0  0  0  0  0
   -1.2901   -2.6564    7.6245 O   0  0  0  0  0  0  0  0  0  0  0  0
   -0.7631   -4.9773    7.1849 C   0  0  0  0  0  0  0  0  0  0  0  0
   -1.6330   -5.8093    6.2567 C   0  0  0  0  0  0  0  0  0  0  0  0
   -1.1538   -5.6382    4.8244 C   0  0  0  0  0  0  0  0  0  0  0  0
    0.2902   -6.1000    4.7147 C   0  0  0  0  0  0  0  0  0  0  0  0
    0.3851   -7.5648    5.1092 C   0  0  0  0  0  0  0  0  0  0  0  0
    1.2920   -8.4081    4.4888 C   0  0  0  0  0  0  0  0  0  0  0  0
    1.0468   -9.7826    4.7186 C   0  0  0  0  0  0  0  0  0  0  0  0
    0.2887  -10.2557    5.6910 C   0  0  0  0  0  0  0  0  0  0  0  0
   -0.5361   -9.3584    6.3105 C   0  0  0  0  0  0  0  0  0  0  0  0
   -0.4458   -8.0138    6.0426 C   0  0  0  0  0  0  0  0  0  0  0  0
    0.9146   -4.4744    2.2139 C   0  0  0  0  0  0  0  0  0  0  0  0
    1.3091   -4.0804    0.9542 C   0  0  0  0  0  0  0  0  0  0  0  0
    1.2335   -2.7401    0.5611 C   0  0  0  0  0  0  0  0  0  0  0  0
    1.6556   -2.3271   -0.7303 O   0  0  0  0  0  0  0  0  0  0  0  0
    0.7081    0.9521   -0.2370 H   0  0  0  0  0  0  0  0  0  0  0  0
    0.7082   -0.6887   -0.8377 H   0  0  0  0  0  0  0  0  0  0  0  0
    2.1348   -0.0417   -0.0637 H   0  0  0  0  0  0  0  0  0  0  0  0
    0.0102   -1.4940    3.4671 H   0  0  0  0  0  0  0  0  0  0  0  0
    0.0930   -5.0188    4.7831 H   0  0  0  0  0  0  0  0  0  0  0  0
   -0.5031   -2.0402    5.1206 H   0  0  0  0  0  0  0  0  0  0  0  0
    0.2534   -5.3023    7.1076 H   0  0  0  0  0  0  0  0  0  0  0  0
   -1.1005   -5.0977    8.1931 H   0  0  0  0  0  0  0  0  0  0  0  0
   -1.5662   -6.8405    6.5344 H   0  0  0  0  0  0  0  0  0  0  0  0
   -2.6495   -5.4843    6.3340 H   0  0  0  0  0  0  0  0  0  0  0  0
   -1.7662   -6.2240    4.1711 H   0  0  0  0  0  0  0  0  0  0  0  0
   -1.2206   -4.6071    4.5467 H   0  0  0  0  0  0  0  0  0  0  0  0
    0.6276   -5.9795    3.7065 H   0  0  0  0  0  0  0  0  0  0  0  0
    0.9026   -5.5142    5.3681 H   0  0  0  0  0  0  0  0  0  0  0  0
    2.1044   -8.0524    3.8901 H   0  0  0  0  0  0  0  0  0  0  0  0
    1.5076  -10.4876    4.0587 H   0  0  0  0  0  0  0  0  0  0  0  0
    0.3184  -11.2860    5.9784 H   0  0  0  0  0  0  0  0  0  0  0  0
   -1.2623   -9.7082    7.0142 H   0  0  0  0  0  0  0  0  0  0  0  0
   -1.0506   -7.3221    6.5911 H   0  0  0  0  0  0  0  0  0  0  0  0
    0.9717   -5.5059    2.4926 H   0  0  0  0  0  0  0  0  0  0  0  0
    1.6790   -4.8111    0.2656 H   0  0  0  0  0  0  0  0  0  0  0  0
    1.5936   -1.3640   -0.9923 H   0  0  0  0  0  0  0  0  0  0  0  0
  1  2  1  0  0  0  0
  1 24  1  0  0  0  0
  1 25  1  0  0  0  0
  1 26  1  0  0  0  0
  2  3  1  0  0  0  0
  3  4  1  0  0  0  0
  3 22  2  0  0  0  0
  4  5  2  0  0  0  0
  4 27  1  0  0  0  0
  5  6  1  0  0  0  0
  5 20  1  0  0  0  0
  6  7  2  0  0  0  0
  6 28  1  0  0  0  0
  7  8  1  0  0  0  0
  7 29  1  0  0  0  0
  8  9  2  0  0  0  0
  8 10  1  0  0  0  0
 10 11  1  0  0  0  0
 10 30  1  0  0  0  0
 10 31  1  0  0  0  0
 11 12  1  0  0  0  0
 11 32  1  0  0  0  0
 11 33  1  0  0  0  0
 12 13  1  0  0  0  0
 12 34  1  0  0  0  0
 12 35  1  0  0  0  0
 13 14  1  0  0  0  0
 13 36  1  0  0  0  0
 13 37  1  0  0  0  0
 14 15  1  0  0  0  0
 14 19  2  0  0  0  0
 15 16  2  0  0  0  0
 15 38  1  0  0  0  0
 16 17  1  0  0  0  0
 16 39  1  0  0  0  0
 17 18  2  0  0  0  0
 17 40  1  0  0  0  0
 18 19  1  0  0  0  0
 18 41  1  0  0  0  0
 19 42  1  0  0  0  0
 20 21  2  0  0  0  0
 20 43  1  0  0  0  0
 21 22  1  0  0  0  0
 21 44  1  0  0  0  0
 22 23  1  0  0  0  0
 23 45  1  0  0  0  0
M  END
