
 OpenBabel09262513003D

 33 34  0  0  0  0  0  0  0  0999 V2000
    0.9916   -0.0906   -0.0415 C   0  0  0  0  0  0  0  0  0  0  0  0
    0.5182    0.0475    1.2902 O   0  0  0  0  0  0  0  0  0  0  0  0
    0.1885   -1.0493    2.0093 C   0  0  0  0  0  0  0  0  0  0  0  0
   -0.2472   -0.8551    3.2984 C   0  0  0  0  0  0  0  0  0  0  0  0
   -0.6234   -1.9362    4.0719 C   0  0  0  0  0  0  0  0  0  0  0  0
   -0.5467   -3.2108    3.5652 C   0  0  0  0  0  0  0  0  0  0  0  0
   -0.9743   -4.3931    4.4195 C   0  0  0  0  0  0  0  0  0  0  0  0
   -1.4020   -4.2017    5.6008 O   0  0  0  0  0  0  0  0  0  0  0  0
   -0.8903   -5.8042    3.8609 C   0  0  0  0  0  0  0  0  0  0  0  0
   -0.4324   -6.0091    2.5963 C   0  0  0  0  0  0  0  0  0  0  0  0
   -0.3484   -7.4202    2.0377 C   0  0  0  0  0  0  0  0  0  0  0  0
    0.8148   -7.7743    1.3743 C   0  0  0  0  0  0  0  0  0  0  0  0
    0.7161   -8.9867    0.6515 C   0  0  0  0  0  0  0  0  0  0  0  0
   -0.2185   -9.8996    0.8442 C   0  0  0  0  0  0  0  0  0  0  0  0
   -1.3118   -9.5077    1.5657 C   0  0  0  0  0  0  0  0  0  0  0  0
   -1.3437   -8.2854    2.1925 C   0  0  0  0  0  0  0  0  0  0  0  0
   -0.0833   -3.4204    2.2849 C   0  0  0  0  0  0  0  0  0  0  0  0
    0.0009   -4.7450    1.7802 O   0  0  0  0  0  0  0  0  0  0  0  0
    0.3056   -2.3488    1.4743 C   0  0  0  0  0  0  0  0  0  0  0  0
    0.6349    0.7263   -0.6333 H   0  0  0  0  0  0  0  0  0  0  0  0
    0.6349   -1.0116   -0.4530 H   0  0  0  0  0  0  0  0  0  0  0  0
    2.0616   -0.0906   -0.0415 H   0  0  0  0  0  0  0  0  0  0  0  0
   -0.2951    0.1342    3.7031 H   0  0  0  0  0  0  0  0  0  0  0  0
   -0.9759   -1.7800    5.0700 H   0  0  0  0  0  0  0  0  0  0  0  0
   -1.1913   -6.6365    4.4623 H   0  0  0  0  0  0  0  0  0  0  0  0
   -0.1314   -5.1768    1.9950 H   0  0  0  0  0  0  0  0  0  0  0  0
    1.7070   -7.1845    1.4054 H   0  0  0  0  0  0  0  0  0  0  0  0
    1.4497   -9.1771   -0.1038 H   0  0  0  0  0  0  0  0  0  0  0  0
   -0.1251  -10.8926    0.4567 H   0  0  0  0  0  0  0  0  0  0  0  0
   -2.1547  -10.1623    1.6433 H   0  0  0  0  0  0  0  0  0  0  0  0
   -2.1783   -8.0284    2.8109 H   0  0  0  0  0  0  0  0  0  0  0  0
    0.3362   -4.9061    0.8519 H   0  0  0  0  0  0  0  0  0  0  0  0
    0.6784   -2.5093    0.4842 H   0  0  0  0  0  0  0  0  0  0  0  0
  1  2  1  0  0  0  0
  1 20  1  0  0  0  0
  1 21  1  0  0  0  0
  1 22  1  0  0  0  0
  2  3  1  0  0  0  0
  3  4  1  0  0  0  0
  3 19  2  0  0  0  0
  4  5  2  0  0  0  0
  4 23  1  0  0  0  0
  5  6  1  0  0  0  0
  5 24  1  0  0  0  0
  6  7  1  0  0  0  0
  6 17  2  0  0  0  0
  7  8  2  0  0  0  0
  7  9  1  0  0  0  0
  9 10  2  0  0  0  0
  9 25  1  0  0  0  0
 10 11  1  0  0  0  0
 10 26  1  0  0  0  0
 11 12  1  0  0  0  0
 11 16  2  0  0  0  0
 12 13  2  0  0  0  0
 12 27  1  0  0  0  0
 13 14  1  0  0  0  0
 13 28  1  0  0  0  0
 14 15  2  0  0  0  0
 14 29  1  0  0  0  0
 15 16  1  0  0  0  0
 15 30  1  0  0  0  0
 16 31  1  0  0  0  0
 17 18  1  0  0  0  0
 17 19  1  0  0  0  0
 18 32  1  0  0  0  0
 19 33  1  0  0  0  0
M  END
