
 OpenBabel09262513003D

 31 33  0  0  0  0  0  0  0  0999 V2000
    0.9283   -0.0414   -0.0560 C   0  0  0  0  0  0  0  0  0  0  0  0
    0.4549    1.2563    0.2733 O   0  0  0  0  0  0  0  0  0  0  0  0
    0.7980    1.8418    1.5206 C   0  0  0  0  0  0  0  0  0  0  0  0
   -0.1398    2.5988    2.2032 C   0  0  0  0  0  0  0  0  0  0  0  0
    0.4197    3.4769    3.1613 C   0  0  0  0  0  0  0  0  0  0  0  0
    1.6414    3.3707    3.6513 C   0  0  0  0  0  0  0  0  0  0  0  0
    2.0691    4.1160    4.9051 C   0  0  0  0  0  0  0  0  0  0  0  0
    3.4118    3.9719    5.4057 C   0  0  0  0  0  0  0  0  0  0  0  0
    4.3492    3.1216    4.7184 C   0  0  0  0  0  0  0  0  0  0  0  0
    5.5340    2.9944    5.1602 O   0  0  0  0  0  0  0  0  0  0  0  0
    3.9215    2.3763    3.4646 C   0  0  0  0  0  0  0  0  0  0  0  0
    4.1033    1.0107    3.3205 C   0  0  0  0  0  0  0  0  0  0  0  0
    3.7608    0.5190    2.0387 C   0  0  0  0  0  0  0  0  0  0  0  0
    3.0094    1.1642    1.1652 C   0  0  0  0  0  0  0  0  0  0  0  0
    2.8111    2.4964    1.4004 C   0  0  0  0  0  0  0  0  0  0  0  0
    3.2326    3.0775    2.5720 C   0  0  0  0  0  0  0  0  0  0  0  0
    1.1934    4.9103    5.5472 O   0  0  0  0  0  0  0  0  0  0  0  0
    2.5009    2.5542    2.9701 C   0  0  0  0  0  0  0  0  0  0  0  0
    2.0562    1.7639    1.9379 C   0  0  0  0  0  0  0  0  0  0  0  0
    0.5716   -0.3154   -1.0269 H   0  0  0  0  0  0  0  0  0  0  0  0
    0.5716   -0.7452    0.6667 H   0  0  0  0  0  0  0  0  0  0  0  0
    1.9983   -0.0414   -0.0560 H   0  0  0  0  0  0  0  0  0  0  0  0
   -1.1919    2.5262    2.0224 H   0  0  0  0  0  0  0  0  0  0  0  0
   -0.1895    4.2831    3.5134 H   0  0  0  0  0  0  0  0  0  0  0  0
    3.7129    4.4965    6.2883 H   0  0  0  0  0  0  0  0  0  0  0  0
    4.4695    0.3845    4.1070 H   0  0  0  0  0  0  0  0  0  0  0  0
    4.1368   -0.4425    1.7576 H   0  0  0  0  0  0  0  0  0  0  0  0
    2.5788    0.6709    0.3189 H   0  0  0  0  0  0  0  0  0  0  0  0
    2.3207    3.0951    0.6615 H   0  0  0  0  0  0  0  0  0  0  0  0
    3.5348    2.5303    3.2448 H   0  0  0  0  0  0  0  0  0  0  0  0
    2.7298    1.0794    1.4660 H   0  0  0  0  0  0  0  0  0  0  0  0
  1  2  1  0  0  0  0
  1 20  1  0  0  0  0
  1 21  1  0  0  0  0
  1 22  1  0  0  0  0
  2  3  1  0  0  0  0
  3  4  1  0  0  0  0
  3 19  2  0  0  0  0
  4  5  2  0  0  0  0
  4 23  1  0  0  0  0
  5  6  1  0  0  0  0
  5 24  1  0  0  0  0
  6  7  1  0  0  0  0
  6 18  2  0  0  0  0
  7  8  2  0  0  0  0
  7 17  1  0  0  0  0
  8  9  1  0  0  0  0
  8 25  1  0  0  0  0
  9 10  2  0  0  0  0
  9 11  1  0  0  0  0
 11 12  1  0  0  0  0
 11 16  2  0  0  0  0
 12 13  2  0  0  0  0
 12 26  1  0  0  0  0
 13 14  1  0  0  0  0
 13 27  1  0  0  0  0
 14 15  2  0  0  0  0
 14 28  1  0  0  0  0
 15 16  1  0  0  0  0
 15 29  1  0  0  0  0
 16 17  1  0  0  0  0
 18 19  1  0  0  0  0
 18 30  1  0  0  0  0
 19 31  1  0  0  0  0
M  END
