
 OpenBabel09262513003D

 35 37  0  0  0  0  0  0  0  0999 V2000
    1.0629   -0.0088    0.0772 C   0  0  0  0  0  0  0  0  0  0  0  0
    0.5896   -0.5689    1.2933 O   0  0  0  0  0  0  0  0  0  0  0  0
    0.9326   -1.9020    1.6419 C   0  0  0  0  0  0  0  0  0  0  0  0
   -0.0483   -2.7113    2.1909 C   0  0  0  0  0  0  0  0  0  0  0  0
    0.4553   -3.8671    2.8333 C   0  0  0  0  0  0  0  0  0  0  0  0
    1.6667   -4.3592    2.6478 C   0  0  0  0  0  0  0  0  0  0  0  0
    2.0354   -5.7666    3.0879 C   0  0  0  0  0  0  0  0  0  0  0  0
    3.3685   -6.2644    2.8663 C   0  0  0  0  0  0  0  0  0  0  0  0
    4.3524   -5.4286    2.2278 C   0  0  0  0  0  0  0  0  0  0  0  0
    5.5289   -5.8678    2.0324 O   0  0  0  0  0  0  0  0  0  0  0  0
    3.9837   -4.0212    1.7878 C   0  0  0  0  0  0  0  0  0  0  0  0
    4.3711   -3.6671    0.5059 C   0  0  0  0  0  0  0  0  0  0  0  0
    4.2346   -2.2868    0.2264 C   0  0  0  0  0  0  0  0  0  0  0  0
    3.4925   -1.4502    0.9289 C   0  0  0  0  0  0  0  0  0  0  0  0
    3.0843   -1.8854    2.1591 C   0  0  0  0  0  0  0  0  0  0  0  0
    3.2971   -3.1835    2.5559 C   0  0  0  0  0  0  0  0  0  0  0  0
    1.1162   -6.5474    3.6844 O   0  0  0  0  0  0  0  0  0  0  0  0
    2.5713   -3.5347    2.0385 C   0  0  0  0  0  0  0  0  0  0  0  0
    2.1813   -2.3314    1.5021 C   0  0  0  0  0  0  0  0  0  0  0  0
    3.1221   -1.5398    0.7916 O   0  0  0  0  0  0  0  0  0  0  0  0
    2.7259   -0.2952    0.2346 C   0  0  0  0  0  0  0  0  0  0  0  0
    0.7062    0.9957   -0.0155 H   0  0  0  0  0  0  0  0  0  0  0  0
    0.7062   -0.5914   -0.7464 H   0  0  0  0  0  0  0  0  0  0  0  0
    2.1329   -0.0088    0.0772 H   0  0  0  0  0  0  0  0  0  0  0  0
   -1.0922   -2.4831    2.1344 H   0  0  0  0  0  0  0  0  0  0  0  0
   -0.1902   -4.3778    3.5169 H   0  0  0  0  0  0  0  0  0  0  0  0
    3.6281   -7.2551    3.1761 H   0  0  0  0  0  0  0  0  0  0  0  0
    4.7401   -4.3734   -0.2082 H   0  0  0  0  0  0  0  0  0  0  0  0
    4.7699   -1.8934   -0.6124 H   0  0  0  0  0  0  0  0  0  0  0  0
    3.2250   -0.4839    0.5553 H   0  0  0  0  0  0  0  0  0  0  0  0
    2.5920   -1.2052    2.8224 H   0  0  0  0  0  0  0  0  0  0  0  0
    3.5978   -3.8308    1.9787 H   0  0  0  0  0  0  0  0  0  0  0  0
    1.9375   -0.4550   -0.4709 H   0  0  0  0  0  0  0  0  0  0  0  0
    2.3810    0.3510    1.0146 H   0  0  0  0  0  0  0  0  0  0  0  0
    3.5607    0.1563   -0.2596 H   0  0  0  0  0  0  0  0  0  0  0  0
  1  2  1  0  0  0  0
  1 22  1  0  0  0  0
  1 23  1  0  0  0  0
  1 24  1  0  0  0  0
  2  3  1  0  0  0  0
  3  4  1  0  0  0  0
  3 19  2  0  0  0  0
  4  5  2  0  0  0  0
  4 25  1  0  0  0  0
  5  6  1  0  0  0  0
  5 26  1  0  0  0  0
  6  7  1  0  0  0  0
  6 18  2  0  0  0  0
  7  8  2  0  0  0  0
  7 17  1  0  0  0  0
  8  9  1  0  0  0  0
  8 27  1  0  0  0  0
  9 10  2  0  0  0  0
  9 11  1  0  0  0  0
 11 12  1  0  0  0  0
 11 16  2  0  0  0  0
 12 13  2  0  0  0  0
 12 28  1  0  0  0  0
 13 14  1  0  0  0  0
 13 29  1  0  0  0  0
 14 15  2  0  0  0  0
 14 30  1  0  0  0  0
 15 16  1  0  0  0  0
 15 31  1  0  0  0  0
 16 17  1  0  0  0  0
 18 19  1  0  0  0  0
 18 32  1  0  0  0  0
 19 20  1  0  0  0  0
 20 21  1  0  0  0  0
 21 33  1  0  0  0  0
 21 34  1  0  0  0  0
 21 35  1  0  0  0  0
M  END
