
 OpenBabel09262513003D

 28 30  0  0  0  0  0  0  0  0999 V2000
    1.3440   -0.2250    0.0360 C   0  0  0  0  0  0  0  0  0  0  0  0
    0.8920    1.0800   -0.0700 C   0  0  0  0  0  0  0  0  0  0  0  0
   -0.5090    1.2150    0.0750 C   0  0  0  0  0  0  0  0  0  0  0  0
   -1.3730    0.2230   -0.0410 C   0  0  0  0  0  0  0  0  0  0  0  0
   -0.8560   -1.0420    0.0030 C   0  0  0  0  0  0  0  0  0  0  0  0
    0.5020   -1.2510   -0.0040 C   0  0  0  0  0  0  0  0  0  0  0  0
   -2.8621    0.4740   -0.2141 C   0  0  0  0  0  0  0  0  0  0  0  0
   -3.7702   -0.6371   -0.3370 C   0  0  0  0  0  0  0  0  0  0  0  0
   -3.2673   -1.9860   -0.2958 C   0  0  0  0  0  0  0  0  0  0  0  0
   -4.0686   -2.9665   -0.4042 O   0  0  0  0  0  0  0  0  0  0  0  0
   -1.7782   -2.2370   -0.1227 C   0  0  0  0  0  0  0  0  0  0  0  0
   -1.1508   -3.1794   -0.9207 C   0  0  0  0  0  0  0  0  0  0  0  0
    0.1458   -3.5334   -0.4783 C   0  0  0  0  0  0  0  0  0  0  0  0
    0.8687   -2.8221    0.3675 C   0  0  0  0  0  0  0  0  0  0  0  0
    0.2038   -1.8605    1.0766 C   0  0  0  0  0  0  0  0  0  0  0  0
   -1.1034   -1.5488    0.7907 C   0  0  0  0  0  0  0  0  0  0  0  0
   -3.3319    1.7342   -0.2526 O   0  0  0  0  0  0  0  0  0  0  0  0
   -1.7541   -3.7395   -2.0777 O   0  0  0  0  0  0  0  0  0  0  0  0
    2.3915   -0.4099    0.1523 H   0  0  0  0  0  0  0  0  0  0  0  0
    1.5432    1.9107   -0.2456 H   0  0  0  0  0  0  0  0  0  0  0  0
   -0.8953    2.1885    0.2939 H   0  0  0  0  0  0  0  0  0  0  0  0
   -1.5185   -1.8813    0.0435 H   0  0  0  0  0  0  0  0  0  0  0  0
    0.8845   -2.2496   -0.0420 H   0  0  0  0  0  0  0  0  0  0  0  0
   -4.8184   -0.4604   -0.4588 H   0  0  0  0  0  0  0  0  0  0  0  0
    0.5700   -4.4404   -0.8554 H   0  0  0  0  0  0  0  0  0  0  0  0
    1.9183   -2.9893    0.4913 H   0  0  0  0  0  0  0  0  0  0  0  0
    0.7088   -1.3434    1.8656 H   0  0  0  0  0  0  0  0  0  0  0  0
   -2.6739   -3.4560   -2.3490 H   0  0  0  0  0  0  0  0  0  0  0  0
  1  2  2  0  0  0  0
  1  6  1  0  0  0  0
  1 19  1  0  0  0  0
  2  3  1  0  0  0  0
  2 20  1  0  0  0  0
  3  4  2  0  0  0  0
  3 21  1  0  0  0  0
  4  5  1  0  0  0  0
  4  7  1  0  0  0  0
  5  6  2  0  0  0  0
  5 22  1  0  0  0  0
  6 23  1  0  0  0  0
  7  8  2  0  0  0  0
  7 17  1  0  0  0  0
  8  9  1  0  0  0  0
  8 24  1  0  0  0  0
  9 10  2  0  0  0  0
  9 11  1  0  0  0  0
 11 12  2  0  0  0  0
 11 16  1  0  0  0  0
 12 13  1  0  0  0  0
 12 18  1  0  0  0  0
 13 14  2  0  0  0  0
 13 25  1  0  0  0  0
 14 15  1  0  0  0  0
 14 26  1  0  0  0  0
 15 16  2  0  0  0  0
 15 27  1  0  0  0  0
 16 17  1  0  0  0  0
 18 28  1  0  0  0  0
M  END
