
 OpenBabel09262513003D

 35 37  0  0  0  0  0  0  0  0999 V2000
    0.9496   -0.0757    0.0415 C   0  0  0  0  0  0  0  0  0  0  0  0
    0.4763   -0.2981   -1.2787 O   0  0  0  0  0  0  0  0  0  0  0  0
    0.8193    0.6069   -2.3178 C   0  0  0  0  0  0  0  0  0  0  0  0
   -0.1209    1.1915   -3.1502 C   0  0  0  0  0  0  0  0  0  0  0  0
    0.4397    1.9613   -4.1967 C   0  0  0  0  0  0  0  0  0  0  0  0
   -0.3915    2.2750   -5.3044 O   0  0  0  0  0  0  0  0  0  0  0  0
    0.1216    3.0449   -6.3816 C   0  0  0  0  0  0  0  0  0  0  0  0
    1.6822    2.4083   -4.2149 C   0  0  0  0  0  0  0  0  0  0  0  0
    2.5466    1.8387   -3.3217 C   0  0  0  0  0  0  0  0  0  0  0  0
    4.0291    2.1645   -3.4019 C   0  0  0  0  0  0  0  0  0  0  0  0
    4.9487    1.5702   -2.4662 C   0  0  0  0  0  0  0  0  0  0  0  0
    4.4635    0.6673   -1.4545 C   0  0  0  0  0  0  0  0  0  0  0  0
    5.2749    0.1429   -0.6288 O   0  0  0  0  0  0  0  0  0  0  0  0
    2.9810    0.3415   -1.3743 C   0  0  0  0  0  0  0  0  0  0  0  0
    2.3523    0.3418   -0.1401 C   0  0  0  0  0  0  0  0  0  0  0  0
    1.0682   -0.2524   -0.1507 C   0  0  0  0  0  0  0  0  0  0  0  0
    0.3507   -0.4659   -1.2386 C   0  0  0  0  0  0  0  0  0  0  0  0
    1.0151   -0.3847   -2.4309 C   0  0  0  0  0  0  0  0  0  0  0  0
    2.3131    0.0623   -2.4875 C   0  0  0  0  0  0  0  0  0  0  0  0
    4.4823    3.0080   -4.3471 O   0  0  0  0  0  0  0  0  0  0  0  0
    2.0944    0.9760   -2.3526 C   0  0  0  0  0  0  0  0  0  0  0  0
    0.5929   -0.8535    0.6840 H   0  0  0  0  0  0  0  0  0  0  0  0
    0.5929    0.8695    0.3938 H   0  0  0  0  0  0  0  0  0  0  0  0
    2.0196   -0.0757    0.0415 H   0  0  0  0  0  0  0  0  0  0  0  0
   -1.1754    1.0718   -3.0142 H   0  0  0  0  0  0  0  0  0  0  0  0
    0.4391    3.9999   -6.0180 H   0  0  0  0  0  0  0  0  0  0  0  0
    0.9543    2.5352   -6.8194 H   0  0  0  0  0  0  0  0  0  0  0  0
   -0.6418    3.1799   -7.1190 H   0  0  0  0  0  0  0  0  0  0  0  0
    1.9957    3.1750   -4.8922 H   0  0  0  0  0  0  0  0  0  0  0  0
    5.9923    1.7995   -2.5227 H   0  0  0  0  0  0  0  0  0  0  0  0
    2.7973    0.7539    0.7414 H   0  0  0  0  0  0  0  0  0  0  0  0
    0.6494   -0.5494    0.7881 H   0  0  0  0  0  0  0  0  0  0  0  0
   -0.6943   -0.6903   -1.1897 H   0  0  0  0  0  0  0  0  0  0  0  0
    0.5170   -0.6735   -3.3328 H   0  0  0  0  0  0  0  0  0  0  0  0
    2.7759    0.5981   -1.6193 H   0  0  0  0  0  0  0  0  0  0  0  0
  1  2  1  0  0  0  0
  1 22  1  0  0  0  0
  1 23  1  0  0  0  0
  1 24  1  0  0  0  0
  2  3  1  0  0  0  0
  3  4  1  0  0  0  0
  3 21  2  0  0  0  0
  4  5  2  0  0  0  0
  4 25  1  0  0  0  0
  5  6  1  0  0  0  0
  5  8  1  0  0  0  0
  6  7  1  0  0  0  0
  7 26  1  0  0  0  0
  7 27  1  0  0  0  0
  7 28  1  0  0  0  0
  8  9  2  0  0  0  0
  8 29  1  0  0  0  0
  9 10  1  0  0  0  0
  9 21  1  0  0  0  0
 10 11  2  0  0  0  0
 10 20  1  0  0  0  0
 11 12  1  0  0  0  0
 11 30  1  0  0  0  0
 12 13  2  0  0  0  0
 12 14  1  0  0  0  0
 14 15  1  0  0  0  0
 14 19  2  0  0  0  0
 15 16  2  0  0  0  0
 15 31  1  0  0  0  0
 16 17  1  0  0  0  0
 16 32  1  0  0  0  0
 17 18  2  0  0  0  0
 17 33  1  0  0  0  0
 18 19  1  0  0  0  0
 18 34  1  0  0  0  0
 19 20  1  0  0  0  0
 21 35  1  0  0  0  0
M  END
