
 OpenBabel09262513003D

 44 45  0  0  0  0  0  0  0  0999 V2000
    0.9334   -0.0431    0.0609 O   0  0  0  0  0  0  0  0  0  0  0  0
    2.2043   -0.0431    0.0609 C   0  0  0  0  0  0  0  0  0  0  0  0
    2.9643   -1.0325   -0.8074 C   0  0  0  0  0  0  0  0  0  0  0  0
    3.8382   -0.2745   -1.7933 C   0  0  0  0  0  0  0  0  0  0  0  0
    4.8259    0.5939   -1.0313 C   0  0  0  0  0  0  0  0  0  0  0  0
    5.6998   -0.2852   -0.1516 C   0  0  0  0  0  0  0  0  0  0  0  0
    6.4598   -1.2746   -1.0198 C   0  0  0  0  0  0  0  0  0  0  0  0
    6.1347   -2.6035   -0.8584 C   0  0  0  0  0  0  0  0  0  0  0  0
    6.6733   -3.5847   -1.6973 C   0  0  0  0  0  0  0  0  0  0  0  0
    7.5444   -3.1611   -2.7222 C   0  0  0  0  0  0  0  0  0  0  0  0
    8.0936   -4.0362   -3.5948 O   0  0  0  0  0  0  0  0  0  0  0  0
    7.8843   -1.8358   -2.8544 C   0  0  0  0  0  0  0  0  0  0  0  0
    7.3339   -0.8926   -2.0084 C   0  0  0  0  0  0  0  0  0  0  0  0
    2.9643    0.9463    0.9291 C   0  0  0  0  0  0  0  0  0  0  0  0
    2.5971    2.3640    0.5220 C   0  0  0  0  0  0  0  0  0  0  0  0
    1.1027    2.5728    0.7052 C   0  0  0  0  0  0  0  0  0  0  0  0
    0.5917    3.8502    0.7752 C   0  0  0  0  0  0  0  0  0  0  0  0
   -0.7806    4.0703    0.9327 C   0  0  0  0  0  0  0  0  0  0  0  0
   -1.6200    2.9390    0.9985 C   0  0  0  0  0  0  0  0  0  0  0  0
   -2.9613    3.0559    1.1263 O   0  0  0  0  0  0  0  0  0  0  0  0
   -1.0951    1.6694    0.9573 C   0  0  0  0  0  0  0  0  0  0  0  0
    0.2654    1.4878    0.8011 C   0  0  0  0  0  0  0  0  0  0  0  0
    3.5795   -1.6514   -0.1881 H   0  0  0  0  0  0  0  0  0  0  0  0
    2.2690   -1.6438   -1.3438 H   0  0  0  0  0  0  0  0  0  0  0  0
    4.3732   -0.9710   -2.4045 H   0  0  0  0  0  0  0  0  0  0  0  0
    3.2230    0.3444   -2.4126 H   0  0  0  0  0  0  0  0  0  0  0  0
    5.4411    1.1275   -1.7254 H   0  0  0  0  0  0  0  0  0  0  0  0
    4.2909    1.2904   -0.4201 H   0  0  0  0  0  0  0  0  0  0  0  0
    6.3951    0.3261    0.3849 H   0  0  0  0  0  0  0  0  0  0  0  0
    5.0846   -0.8188    0.5425 H   0  0  0  0  0  0  0  0  0  0  0  0
    5.4596   -2.8897   -0.0791 H   0  0  0  0  0  0  0  0  0  0  0  0
    6.4332   -4.6192   -1.5661 H   0  0  0  0  0  0  0  0  0  0  0  0
    7.8723   -5.0094   -3.5329 H   0  0  0  0  0  0  0  0  0  0  0  0
    8.5758   -1.5345   -3.6133 H   0  0  0  0  0  0  0  0  0  0  0  0
    7.5895    0.1401   -2.1237 H   0  0  0  0  0  0  0  0  0  0  0  0
    2.7058    0.7918    1.9559 H   0  0  0  0  0  0  0  0  0  0  0  0
    4.0163    0.7994    0.8001 H   0  0  0  0  0  0  0  0  0  0  0  0
    3.1321    3.0605    1.1332 H   0  0  0  0  0  0  0  0  0  0  0  0
    2.8556    2.5185   -0.5048 H   0  0  0  0  0  0  0  0  0  0  0  0
    1.2550    4.6871    0.7081 H   0  0  0  0  0  0  0  0  0  0  0  0
   -1.1791    5.0610    1.0007 H   0  0  0  0  0  0  0  0  0  0  0  0
   -3.3832    3.9619    1.1603 H   0  0  0  0  0  0  0  0  0  0  0  0
   -1.7409    0.8208    1.0462 H   0  0  0  0  0  0  0  0  0  0  0  0
    0.6688    0.4978    0.7547 H   0  0  0  0  0  0  0  0  0  0  0  0
  1  2  2  0  0  0  0
  2  3  1  0  0  0  0
  2 14  1  0  0  0  0
  3  4  1  0  0  0  0
  3 23  1  0  0  0  0
  3 24  1  0  0  0  0
  4  5  1  0  0  0  0
  4 25  1  0  0  0  0
  4 26  1  0  0  0  0
  5  6  1  0  0  0  0
  5 27  1  0  0  0  0
  5 28  1  0  0  0  0
  6  7  1  0  0  0  0
  6 29  1  0  0  0  0
  6 30  1  0  0  0  0
  7  8  1  0  0  0  0
  7 13  2  0  0  0  0
  8  9  2  0  0  0  0
  8 31  1  0  0  0  0
  9 10  1  0  0  0  0
  9 32  1  0  0  0  0
 10 11  1  0  0  0  0
 10 12  2  0  0  0  0
 11 33  1  0  0  0  0
 12 13  1  0  0  0  0
 12 34  1  0  0  0  0
 13 35  1  0  0  0  0
 14 15  1  0  0  0  0
 14 36  1  0  0  0  0
 14 37  1  0  0  0  0
 15 16  1  0  0  0  0
 15 38  1  0  0  0  0
 15 39  1  0  0  0  0
 16 17  1  0  0  0  0
 16 22  2  0  0  0  0
 17 18  2  0  0  0  0
 17 40  1  0  0  0  0
 18 19  1  0  0  0  0
 18 41  1  0  0  0  0
 19 20  1  0  0  0  0
 19 21  2  0  0  0  0
 20 42  1  0  0  0  0
 21 22  1  0  0  0  0
 21 43  1  0  0  0  0
 22 44  1  0  0  0  0
M  END
