
 OpenBabel09262515163D

 32 33  0  0  0  0  0  0  0  0999 V2000
    0.9972   -0.0714    0.0699 C   0  0  0  0  0  0  0  0  0  0  0  0
    0.5239   -1.1839   -0.6748 O   0  0  0  0  0  0  0  0  0  0  0  0
    0.8669   -1.3180   -2.0462 C   0  0  0  0  0  0  0  0  0  0  0  0
   -0.1200   -1.6452   -2.9614 C   0  0  0  0  0  0  0  0  0  0  0  0
    0.3774   -2.0136   -4.2338 C   0  0  0  0  0  0  0  0  0  0  0  0
    1.5950   -1.7443   -4.6686 C   0  0  0  0  0  0  0  0  0  0  0  0
    1.9629   -1.8552   -6.1392 C   0  0  0  0  0  0  0  0  0  0  0  0
    1.0264   -2.2406   -7.0476 C   0  0  0  0  0  0  0  0  0  0  0  0
   -0.3880   -2.5604   -6.5918 C   0  0  0  0  0  0  0  0  0  0  0  0
   -1.0116   -3.7020   -7.0676 C   0  0  0  0  0  0  0  0  0  0  0  0
   -2.4007   -3.7493   -6.8023 C   0  0  0  0  0  0  0  0  0  0  0  0
   -3.1875   -4.6565   -7.5601 O   0  0  0  0  0  0  0  0  0  0  0  0
   -3.0162   -3.0084   -5.8989 C   0  0  0  0  0  0  0  0  0  0  0  0
   -2.3210   -1.9340   -5.4173 C   0  0  0  0  0  0  0  0  0  0  0  0
   -2.9762   -0.9968   -4.5754 O   0  0  0  0  0  0  0  0  0  0  0  0
   -0.9975   -1.7482   -5.7363 C   0  0  0  0  0  0  0  0  0  0  0  0
    2.5068   -1.3606   -3.7248 C   0  0  0  0  0  0  0  0  0  0  0  0
    2.1206   -1.1085   -2.4305 C   0  0  0  0  0  0  0  0  0  0  0  0
    0.6405   -0.1383    1.0765 H   0  0  0  0  0  0  0  0  0  0  0  0
    0.6405    0.8337   -0.3754 H   0  0  0  0  0  0  0  0  0  0  0  0
    2.0672   -0.0714    0.0699 H   0  0  0  0  0  0  0  0  0  0  0  0
   -1.1638   -1.6214   -2.7275 H   0  0  0  0  0  0  0  0  0  0  0  0
   -0.2785   -2.5474   -4.8892 H   0  0  0  0  0  0  0  0  0  0  0  0
    2.9586   -1.6300   -6.4601 H   0  0  0  0  0  0  0  0  0  0  0  0
    1.2854   -2.3186   -8.0828 H   0  0  0  0  0  0  0  0  0  0  0  0
   -0.4903   -4.4777   -7.5886 H   0  0  0  0  0  0  0  0  0  0  0  0
   -4.1728   -4.7179   -7.4005 H   0  0  0  0  0  0  0  0  0  0  0  0
   -4.0058   -3.2365   -5.5619 H   0  0  0  0  0  0  0  0  0  0  0  0
   -2.4745   -0.2085   -4.2192 H   0  0  0  0  0  0  0  0  0  0  0  0
   -0.4532   -0.9416   -5.2913 H   0  0  0  0  0  0  0  0  0  0  0  0
    3.5359   -1.2551   -3.9980 H   0  0  0  0  0  0  0  0  0  0  0  0
    2.8365   -0.7399   -1.7259 H   0  0  0  0  0  0  0  0  0  0  0  0
  1  2  1  0  0  0  0
  1 19  1  0  0  0  0
  1 20  1  0  0  0  0
  1 21  1  0  0  0  0
  2  3  1  0  0  0  0
  3  4  1  0  0  0  0
  3 18  2  0  0  0  0
  4  5  2  0  0  0  0
  4 22  1  0  0  0  0
  5  6  1  0  0  0  0
  5 23  1  0  0  0  0
  6  7  1  0  0  0  0
  6 17  2  0  0  0  0
  7  8  2  0  0  0  0
  7 24  1  0  0  0  0
  8  9  1  0  0  0  0
  8 25  1  0  0  0  0
  9 10  1  0  0  0  0
  9 16  2  0  0  0  0
 10 11  2  0  0  0  0
 10 26  1  0  0  0  0
 11 12  1  0  0  0  0
 11 13  1  0  0  0  0
 12 27  1  0  0  0  0
 13 14  2  0  0  0  0
 13 28  1  0  0  0  0
 14 15  1  0  0  0  0
 14 16  1  0  0  0  0
 15 29  1  0  0  0  0
 16 30  1  0  0  0  0
 17 18  1  0  0  0  0
 17 31  1  0  0  0  0
 18 32  1  0  0  0  0
M  END
