
 OpenBabel09262515163D

 31 32  0  0  0  0  0  0  0  0999 V2000
    0.9222    0.0013    0.0628 C   0  0  0  0  0  0  0  0  0  0  0  0
    0.4488   -1.1422    0.7592 O   0  0  0  0  0  0  0  0  0  0  0  0
    0.9418   -2.3317    0.3458 C   0  0  0  0  0  0  0  0  0  0  0  0
    0.6134   -3.4448    1.0824 C   0  0  0  0  0  0  0  0  0  0  0  0
    1.0660   -4.6905    0.6930 C   0  0  0  0  0  0  0  0  0  0  0  0
    0.7081   -5.8400    1.4461 O   0  0  0  0  0  0  0  0  0  0  0  0
    1.8609   -4.8222   -0.4199 C   0  0  0  0  0  0  0  0  0  0  0  0
    2.2212   -3.7103   -1.1490 C   0  0  0  0  0  0  0  0  0  0  0  0
    3.1115   -3.8728   -2.3703 C   0  0  0  0  0  0  0  0  0  0  0  0
    3.5460   -5.1091   -2.7356 C   0  0  0  0  0  0  0  0  0  0  0  0
    4.4363   -5.2716   -3.9568 C   0  0  0  0  0  0  0  0  0  0  0  0
    4.1618   -6.2794   -4.8665 C   0  0  0  0  0  0  0  0  0  0  0  0
    5.2032   -6.5124   -5.7956 C   0  0  0  0  0  0  0  0  0  0  0  0
    6.1832   -5.6646   -6.0503 C   0  0  0  0  0  0  0  0  0  0  0  0
    6.3600   -4.6511   -5.1497 C   0  0  0  0  0  0  0  0  0  0  0  0
    5.4558   -4.4402   -4.1368 C   0  0  0  0  0  0  0  0  0  0  0  0
    1.7806   -2.4341   -0.7832 C   0  0  0  0  0  0  0  0  0  0  0  0
    0.5655    0.8865    0.5466 H   0  0  0  0  0  0  0  0  0  0  0  0
    0.5655   -0.0224   -0.9457 H   0  0  0  0  0  0  0  0  0  0  0  0
    1.9922    0.0013    0.0628 H   0  0  0  0  0  0  0  0  0  0  0  0
    0.0067   -3.3462    1.9582 H   0  0  0  0  0  0  0  0  0  0  0  0
    1.0345   -6.7428    1.1661 H   0  0  0  0  0  0  0  0  0  0  0  0
    2.2009   -5.7910   -0.7210 H   0  0  0  0  0  0  0  0  0  0  0  0
    3.3964   -3.0149   -2.9426 H   0  0  0  0  0  0  0  0  0  0  0  0
    3.2611   -5.9671   -2.1632 H   0  0  0  0  0  0  0  0  0  0  0  0
    3.2453   -6.8317   -4.8666 H   0  0  0  0  0  0  0  0  0  0  0  0
    5.1963   -7.4400   -6.3289 H   0  0  0  0  0  0  0  0  0  0  0  0
    6.8054   -5.7653   -6.9149 H   0  0  0  0  0  0  0  0  0  0  0  0
    7.2147   -4.0130   -5.2349 H   0  0  0  0  0  0  0  0  0  0  0  0
    5.5744   -3.5983   -3.4871 H   0  0  0  0  0  0  0  0  0  0  0  0
    2.0696   -1.5671   -1.3397 H   0  0  0  0  0  0  0  0  0  0  0  0
  1  2  1  0  0  0  0
  1 18  1  0  0  0  0
  1 19  1  0  0  0  0
  1 20  1  0  0  0  0
  2  3  1  0  0  0  0
  3  4  1  0  0  0  0
  3 17  2  0  0  0  0
  4  5  2  0  0  0  0
  4 21  1  0  0  0  0
  5  6  1  0  0  0  0
  5  7  1  0  0  0  0
  6 22  1  0  0  0  0
  7  8  2  0  0  0  0
  7 23  1  0  0  0  0
  8  9  1  0  0  0  0
  8 17  1  0  0  0  0
  9 10  2  0  0  0  0
  9 24  1  0  0  0  0
 10 11  1  0  0  0  0
 10 25  1  0  0  0  0
 11 12  1  0  0  0  0
 11 16  2  0  0  0  0
 12 13  2  0  0  0  0
 12 26  1  0  0  0  0
 13 14  1  0  0  0  0
 13 27  1  0  0  0  0
 14 15  2  0  0  0  0
 14 28  1  0  0  0  0
 15 16  1  0  0  0  0
 15 29  1  0  0  0  0
 16 30  1  0  0  0  0
 17 31  1  0  0  0  0
M  END
