
 OpenBabel09262515163D

 35 36  0  0  0  0  0  0  0  0999 V2000
    0.9385   -0.0588    0.0525 C   0  0  0  0  0  0  0  0  0  0  0  0
    0.4652    0.8403    1.0444 O   0  0  0  0  0  0  0  0  0  0  0  0
    0.8082    0.6384    2.4075 C   0  0  0  0  0  0  0  0  0  0  0  0
   -0.1638    0.7964    3.3816 C   0  0  0  0  0  0  0  0  0  0  0  0
    0.3527    0.9063    4.6943 C   0  0  0  0  0  0  0  0  0  0  0  0
   -0.5573    1.4836    5.7662 C   0  0  0  0  0  0  0  0  0  0  0  0
   -1.8211    1.8737    5.4477 C   0  0  0  0  0  0  0  0  0  0  0  0
   -2.7312    2.4510    6.5196 C   0  0  0  0  0  0  0  0  0  0  0  0
   -4.0609    2.0634    6.5267 C   0  0  0  0  0  0  0  0  0  0  0  0
   -4.9007    2.9097    7.2886 C   0  0  0  0  0  0  0  0  0  0  0  0
   -4.4741    3.7634    8.2015 C   0  0  0  0  0  0  0  0  0  0  0  0
   -5.3555    4.3488    9.1484 O   0  0  0  0  0  0  0  0  0  0  0  0
   -3.1380    4.0533    8.1857 C   0  0  0  0  0  0  0  0  0  0  0  0
   -2.2739    3.3594    7.3734 C   0  0  0  0  0  0  0  0  0  0  0  0
    1.5704    0.5423    5.0530 C   0  0  0  0  0  0  0  0  0  0  0  0
    2.4661    0.3353    4.0409 C   0  0  0  0  0  0  0  0  0  0  0  0
    3.8333    0.1099    4.3516 O   0  0  0  0  0  0  0  0  0  0  0  0
    4.7722   -0.1062    3.3085 C   0  0  0  0  0  0  0  0  0  0  0  0
    2.0624    0.3421    2.7276 C   0  0  0  0  0  0  0  0  0  0  0  0
    0.5819    0.2497   -0.9079 H   0  0  0  0  0  0  0  0  0  0  0  0
    0.5819   -1.0449    0.2655 H   0  0  0  0  0  0  0  0  0  0  0  0
    2.0085   -0.0588    0.0525 H   0  0  0  0  0  0  0  0  0  0  0  0
   -1.2102    0.8320    3.1614 H   0  0  0  0  0  0  0  0  0  0  0  0
   -0.2040    1.5832    6.7713 H   0  0  0  0  0  0  0  0  0  0  0  0
   -2.1745    1.7741    4.4427 H   0  0  0  0  0  0  0  0  0  0  0  0
   -4.4205    1.2021    6.0035 H   0  0  0  0  0  0  0  0  0  0  0  0
   -5.9547    2.8542    7.1130 H   0  0  0  0  0  0  0  0  0  0  0  0
   -5.0035    4.9923    9.8281 H   0  0  0  0  0  0  0  0  0  0  0  0
   -2.7598    4.8317    8.8150 H   0  0  0  0  0  0  0  0  0  0  0  0
   -1.2230    3.5528    7.4294 H   0  0  0  0  0  0  0  0  0  0  0  0
    1.8415    0.4161    6.0804 H   0  0  0  0  0  0  0  0  0  0  0  0
    4.4886   -0.9719    2.7470 H   0  0  0  0  0  0  0  0  0  0  0  0
    4.7910    0.7470    2.6631 H   0  0  0  0  0  0  0  0  0  0  0  0
    5.7444   -0.2568    3.7292 H   0  0  0  0  0  0  0  0  0  0  0  0
    2.7651    0.1066    1.9557 H   0  0  0  0  0  0  0  0  0  0  0  0
  1  2  1  0  0  0  0
  1 20  1  0  0  0  0
  1 21  1  0  0  0  0
  1 22  1  0  0  0  0
  2  3  1  0  0  0  0
  3  4  1  0  0  0  0
  3 19  2  0  0  0  0
  4  5  2  0  0  0  0
  4 23  1  0  0  0  0
  5  6  1  0  0  0  0
  5 15  1  0  0  0  0
  6  7  2  0  0  0  0
  6 24  1  0  0  0  0
  7  8  1  0  0  0  0
  7 25  1  0  0  0  0
  8  9  1  0  0  0  0
  8 14  2  0  0  0  0
  9 10  2  0  0  0  0
  9 26  1  0  0  0  0
 10 11  1  0  0  0  0
 10 27  1  0  0  0  0
 11 12  1  0  0  0  0
 11 13  2  0  0  0  0
 12 28  1  0  0  0  0
 13 14  1  0  0  0  0
 13 29  1  0  0  0  0
 14 30  1  0  0  0  0
 15 16  2  0  0  0  0
 15 31  1  0  0  0  0
 16 17  1  0  0  0  0
 16 19  1  0  0  0  0
 17 18  1  0  0  0  0
 18 32  1  0  0  0  0
 18 33  1  0  0  0  0
 18 34  1  0  0  0  0
 19 35  1  0  0  0  0
M  END
