
 OpenBabel09262515163D

 34 35  0  0  0  0  0  0  0  0999 V2000
    1.0230    0.0089   -0.0969 C   0  0  0  0  0  0  0  0  0  0  0  0
    0.5496    1.3454   -0.0182 O   0  0  0  0  0  0  0  0  0  0  0  0
   -0.7680    1.5917    0.1608 C   0  0  0  0  0  0  0  0  0  0  0  0
   -1.1640    2.9061    0.2292 C   0  0  0  0  0  0  0  0  0  0  0  0
   -2.5006    3.2190    0.3845 C   0  0  0  0  0  0  0  0  0  0  0  0
   -3.4382    2.2203    0.4901 C   0  0  0  0  0  0  0  0  0  0  0  0
   -4.9079    2.5742    0.6484 C   0  0  0  0  0  0  0  0  0  0  0  0
   -5.2680    3.7925    0.6830 O   0  0  0  0  0  0  0  0  0  0  0  0
   -5.9469    1.4710    0.7654 C   0  0  0  0  0  0  0  0  0  0  0  0
   -5.5615    0.1669    0.7284 C   0  0  0  0  0  0  0  0  0  0  0  0
   -6.6005   -0.9364    0.8454 C   0  0  0  0  0  0  0  0  0  0  0  0
   -7.7719   -0.8607    0.1244 C   0  0  0  0  0  0  0  0  0  0  0  0
   -8.7369   -1.8699    0.2084 C   0  0  0  0  0  0  0  0  0  0  0  0
   -8.4577   -2.9724    1.0423 C   0  0  0  0  0  0  0  0  0  0  0  0
   -9.3212   -4.0057    1.1668 O   0  0  0  0  0  0  0  0  0  0  0  0
   -7.2986   -3.0222    1.7793 C   0  0  0  0  0  0  0  0  0  0  0  0
   -6.3667   -2.0080    1.6727 C   0  0  0  0  0  0  0  0  0  0  0  0
   -3.0499    0.8991    0.4529 C   0  0  0  0  0  0  0  0  0  0  0  0
   -4.0300   -0.1211    0.5751 O   0  0  0  0  0  0  0  0  0  0  0  0
   -1.7053    0.5467    0.2965 C   0  0  0  0  0  0  0  0  0  0  0  0
    0.6663   -0.4433   -0.9987 H   0  0  0  0  0  0  0  0  0  0  0  0
    0.6663   -0.5459    0.7456 H   0  0  0  0  0  0  0  0  0  0  0  0
    2.0930    0.0089   -0.0969 H   0  0  0  0  0  0  0  0  0  0  0  0
   -0.4364    3.6877    0.1622 H   0  0  0  0  0  0  0  0  0  0  0  0
   -2.8069    4.2435    0.4227 H   0  0  0  0  0  0  0  0  0  0  0  0
   -6.9815    1.7201    0.8769 H   0  0  0  0  0  0  0  0  0  0  0  0
   -4.5269   -0.0823    0.6170 H   0  0  0  0  0  0  0  0  0  0  0  0
   -7.9464   -0.0167   -0.5097 H   0  0  0  0  0  0  0  0  0  0  0  0
   -9.6535   -1.8076   -0.3400 H   0  0  0  0  0  0  0  0  0  0  0  0
  -10.1761   -4.0082    0.6479 H   0  0  0  0  0  0  0  0  0  0  0  0
   -7.1179   -3.8472    2.4362 H   0  0  0  0  0  0  0  0  0  0  0  0
   -5.4588   -2.0573    2.2369 H   0  0  0  0  0  0  0  0  0  0  0  0
   -3.7568   -1.0827    0.5491 H   0  0  0  0  0  0  0  0  0  0  0  0
   -1.3990   -0.4784    0.2805 H   0  0  0  0  0  0  0  0  0  0  0  0
  1  2  1  0  0  0  0
  1 21  1  0  0  0  0
  1 22  1  0  0  0  0
  1 23  1  0  0  0  0
  2  3  1  0  0  0  0
  3  4  1  0  0  0  0
  3 20  2  0  0  0  0
  4  5  2  0  0  0  0
  4 24  1  0  0  0  0
  5  6  1  0  0  0  0
  5 25  1  0  0  0  0
  6  7  1  0  0  0  0
  6 18  2  0  0  0  0
  7  8  2  0  0  0  0
  7  9  1  0  0  0  0
  9 10  2  0  0  0  0
  9 26  1  0  0  0  0
 10 11  1  0  0  0  0
 10 27  1  0  0  0  0
 11 12  1  0  0  0  0
 11 17  2  0  0  0  0
 12 13  2  0  0  0  0
 12 28  1  0  0  0  0
 13 14  1  0  0  0  0
 13 29  1  0  0  0  0
 14 15  1  0  0  0  0
 14 16  2  0  0  0  0
 15 30  1  0  0  0  0
 16 17  1  0  0  0  0
 16 31  1  0  0  0  0
 17 32  1  0  0  0  0
 18 19  1  0  0  0  0
 18 20  1  0  0  0  0
 19 33  1  0  0  0  0
 20 34  1  0  0  0  0
M  END
