
 OpenBabel09262515163D

 33 34  0  0  0  0  0  0  0  0999 V2000
    0.9864   -0.0985   -0.0103 C   0  0  0  0  0  0  0  0  0  0  0  0
    0.5131   -1.4162   -0.2474 O   0  0  0  0  0  0  0  0  0  0  0  0
    1.2745   -2.4561    0.1620 C   0  0  0  0  0  0  0  0  0  0  0  0
    0.8093   -3.7233   -0.0968 C   0  0  0  0  0  0  0  0  0  0  0  0
    1.5569   -4.8242    0.2743 C   0  0  0  0  0  0  0  0  0  0  0  0
    2.7585   -4.6599    0.9197 C   0  0  0  0  0  0  0  0  0  0  0  0
    3.5800   -5.8768    1.3133 C   0  0  0  0  0  0  0  0  0  0  0  0
    3.1550   -7.0441    1.0452 O   0  0  0  0  0  0  0  0  0  0  0  0
    4.9098   -5.6975    2.0274 C   0  0  0  0  0  0  0  0  0  0  0  0
    5.3647   -4.4479    2.3143 C   0  0  0  0  0  0  0  0  0  0  0  0
    6.6944   -4.2686    3.0285 C   0  0  0  0  0  0  0  0  0  0  0  0
    6.7888   -3.3654    4.0744 C   0  0  0  0  0  0  0  0  0  0  0  0
    8.1182   -3.0687    4.4575 C   0  0  0  0  0  0  0  0  0  0  0  0
    9.1694   -3.8046    4.1455 C   0  0  0  0  0  0  0  0  0  0  0  0
    8.9932   -4.7261    3.1509 C   0  0  0  0  0  0  0  0  0  0  0  0
    7.7452   -4.9784    2.6345 C   0  0  0  0  0  0  0  0  0  0  0  0
    3.2210   -3.3954    1.2112 C   0  0  0  0  0  0  0  0  0  0  0  0
    4.4594   -3.2432    1.8892 O   0  0  0  0  0  0  0  0  0  0  0  0
    2.4898   -2.2591    0.8497 C   0  0  0  0  0  0  0  0  0  0  0  0
    0.6297    0.2432    0.9389 H   0  0  0  0  0  0  0  0  0  0  0  0
    0.6298    0.5526   -0.7808 H   0  0  0  0  0  0  0  0  0  0  0  0
    2.0564   -0.0985   -0.0103 H   0  0  0  0  0  0  0  0  0  0  0  0
   -0.1328   -3.8573   -0.5862 H   0  0  0  0  0  0  0  0  0  0  0  0
    1.1986   -5.8089    0.0581 H   0  0  0  0  0  0  0  0  0  0  0  0
    5.4880   -6.5541    2.3045 H   0  0  0  0  0  0  0  0  0  0  0  0
    4.7864   -3.5913    2.0373 H   0  0  0  0  0  0  0  0  0  0  0  0
    5.9339   -2.9314    4.5495 H   0  0  0  0  0  0  0  0  0  0  0  0
    8.2832   -2.1868    5.0404 H   0  0  0  0  0  0  0  0  0  0  0  0
   10.1086   -3.6861    4.6443 H   0  0  0  0  0  0  0  0  0  0  0  0
    9.8393   -5.2583    2.7692 H   0  0  0  0  0  0  0  0  0  0  0  0
    7.6189   -5.7540    1.9082 H   0  0  0  0  0  0  0  0  0  0  0  0
    4.8023   -2.3289    2.1046 H   0  0  0  0  0  0  0  0  0  0  0  0
    2.8398   -1.2761    1.0864 H   0  0  0  0  0  0  0  0  0  0  0  0
  1  2  1  0  0  0  0
  1 20  1  0  0  0  0
  1 21  1  0  0  0  0
  1 22  1  0  0  0  0
  2  3  1  0  0  0  0
  3  4  1  0  0  0  0
  3 19  2  0  0  0  0
  4  5  2  0  0  0  0
  4 23  1  0  0  0  0
  5  6  1  0  0  0  0
  5 24  1  0  0  0  0
  6  7  1  0  0  0  0
  6 17  2  0  0  0  0
  7  8  2  0  0  0  0
  7  9  1  0  0  0  0
  9 10  2  0  0  0  0
  9 25  1  0  0  0  0
 10 11  1  0  0  0  0
 10 26  1  0  0  0  0
 11 12  1  0  0  0  0
 11 16  2  0  0  0  0
 12 13  2  0  0  0  0
 12 27  1  0  0  0  0
 13 14  1  0  0  0  0
 13 28  1  0  0  0  0
 14 15  2  0  0  0  0
 14 29  1  0  0  0  0
 15 16  1  0  0  0  0
 15 30  1  0  0  0  0
 16 31  1  0  0  0  0
 17 18  1  0  0  0  0
 17 19  1  0  0  0  0
 18 32  1  0  0  0  0
 19 33  1  0  0  0  0
M  END
