
 OpenBabel09262515163D

 40 41  0  0  0  0  0  0  0  0999 V2000
    0.9515   -0.0575   -0.0659 C   0  0  0  0  0  0  0  0  0  0  0  0
    0.4782    1.0095   -0.8744 O   0  0  0  0  0  0  0  0  0  0  0  0
    0.8212    2.3496   -0.5536 C   0  0  0  0  0  0  0  0  0  0  0  0
   -0.1287    3.3547   -0.6306 C   0  0  0  0  0  0  0  0  0  0  0  0
    0.4169    4.6602   -0.6339 C   0  0  0  0  0  0  0  0  0  0  0  0
    1.6420    4.9609   -0.2432 C   0  0  0  0  0  0  0  0  0  0  0  0
    2.0593    6.3920    0.0538 C   0  0  0  0  0  0  0  0  0  0  0  0
    1.2198    7.3378   -0.0717 O   0  0  0  0  0  0  0  0  0  0  0  0
    3.4808    6.6919    0.5010 C   0  0  0  0  0  0  0  0  0  0  0  0
    4.3795    5.6794    0.6354 C   0  0  0  0  0  0  0  0  0  0  0  0
    5.8009    5.9793    1.0825 C   0  0  0  0  0  0  0  0  0  0  0  0
    6.8634    5.3810    0.4256 C   0  0  0  0  0  0  0  0  0  0  0  0
    8.0977    5.4966    1.1078 C   0  0  0  0  0  0  0  0  0  0  0  0
    8.3435    6.3686    2.0686 C   0  0  0  0  0  0  0  0  0  0  0  0
    7.2556    6.9766    2.6310 C   0  0  0  0  0  0  0  0  0  0  0  0
    5.9993    6.8082    2.1008 C   0  0  0  0  0  0  0  0  0  0  0  0
    2.5149    3.9157   -0.1203 C   0  0  0  0  0  0  0  0  0  0  0  0
    3.8884    4.1765    0.1280 O   0  0  0  0  0  0  0  0  0  0  0  0
    4.8037    3.0986    0.2574 C   0  0  0  0  0  0  0  0  0  0  0  0
    2.0821    2.6165   -0.2337 C   0  0  0  0  0  0  0  0  0  0  0  0
    2.9913    1.5497   -0.0067 O   0  0  0  0  0  0  0  0  0  0  0  0
    2.5508    0.2047   -0.1221 C   0  0  0  0  0  0  0  0  0  0  0  0
    0.5949   -0.9872   -0.4576 H   0  0  0  0  0  0  0  0  0  0  0  0
    0.5949    0.0680    0.9351 H   0  0  0  0  0  0  0  0  0  0  0  0
    2.0215   -0.0575   -0.0659 H   0  0  0  0  0  0  0  0  0  0  0  0
   -1.1798    3.1614   -0.6828 H   0  0  0  0  0  0  0  0  0  0  0  0
   -0.2066    5.4594   -0.9767 H   0  0  0  0  0  0  0  0  0  0  0  0
    3.7746    7.6993    0.7101 H   0  0  0  0  0  0  0  0  0  0  0  0
    4.0857    4.6720    0.4263 H   0  0  0  0  0  0  0  0  0  0  0  0
    6.7603    4.8770   -0.5126 H   0  0  0  0  0  0  0  0  0  0  0  0
    8.8867    4.8312    0.8256 H   0  0  0  0  0  0  0  0  0  0  0  0
    9.3404    6.5876    2.3897 H   0  0  0  0  0  0  0  0  0  0  0  0
    7.3845    7.5924    3.4965 H   0  0  0  0  0  0  0  0  0  0  0  0
    5.1732    7.3499    2.5121 H   0  0  0  0  0  0  0  0  0  0  0  0
    4.5072    2.4750    1.0747 H   0  0  0  0  0  0  0  0  0  0  0  0
    4.8088    2.5246   -0.6456 H   0  0  0  0  0  0  0  0  0  0  0  0
    5.7850    3.4840    0.4405 H   0  0  0  0  0  0  0  0  0  0  0  0
    1.7626    0.0261    0.5791 H   0  0  0  0  0  0  0  0  0  0  0  0
    2.1913    0.0311   -1.1148 H   0  0  0  0  0  0  0  0  0  0  0  0
    3.3667   -0.4566    0.0825 H   0  0  0  0  0  0  0  0  0  0  0  0
  1  2  1  0  0  0  0
  1 23  1  0  0  0  0
  1 24  1  0  0  0  0
  1 25  1  0  0  0  0
  2  3  1  0  0  0  0
  3  4  1  0  0  0  0
  3 20  2  0  0  0  0
  4  5  2  0  0  0  0
  4 26  1  0  0  0  0
  5  6  1  0  0  0  0
  5 27  1  0  0  0  0
  6  7  1  0  0  0  0
  6 17  2  0  0  0  0
  7  8  2  0  0  0  0
  7  9  1  0  0  0  0
  9 10  2  0  0  0  0
  9 28  1  0  0  0  0
 10 11  1  0  0  0  0
 10 29  1  0  0  0  0
 11 12  1  0  0  0  0
 11 16  2  0  0  0  0
 12 13  2  0  0  0  0
 12 30  1  0  0  0  0
 13 14  1  0  0  0  0
 13 31  1  0  0  0  0
 14 15  2  0  0  0  0
 14 32  1  0  0  0  0
 15 16  1  0  0  0  0
 15 33  1  0  0  0  0
 16 34  1  0  0  0  0
 17 18  1  0  0  0  0
 17 20  1  0  0  0  0
 18 19  1  0  0  0  0
 19 35  1  0  0  0  0
 19 36  1  0  0  0  0
 19 37  1  0  0  0  0
 20 21  1  0  0  0  0
 21 22  1  0  0  0  0
 22 38  1  0  0  0  0
 22 39  1  0  0  0  0
 22 40  1  0  0  0  0
M  END
