
 OpenBabel09262515243D

 31 33  0  0  0  0  0  0  0  0999 V2000
    0.9525    0.0734    0.0486 C   0  0  0  0  0  0  0  0  0  0  0  0
    0.4792   -0.8125   -0.9552 O   0  0  0  0  0  0  0  0  0  0  0  0
    0.8222   -0.5927   -2.3155 C   0  0  0  0  0  0  0  0  0  0  0  0
   -0.1614   -0.6469   -3.2891 C   0  0  0  0  0  0  0  0  0  0  0  0
    0.3409   -0.6510   -4.6119 C   0  0  0  0  0  0  0  0  0  0  0  0
    1.5621   -0.2795   -4.9505 C   0  0  0  0  0  0  0  0  0  0  0  0
    1.9373    0.0196   -6.3927 C   0  0  0  0  0  0  0  0  0  0  0  0
    3.2812    0.4220   -6.7186 C   0  0  0  0  0  0  0  0  0  0  0  0
    4.2696    0.5410   -5.6779 C   0  0  0  0  0  0  0  0  0  0  0  0
    5.4555    0.8961   -5.9654 O   0  0  0  0  0  0  0  0  0  0  0  0
    3.8944    0.2419   -4.2356 C   0  0  0  0  0  0  0  0  0  0  0  0
    4.3609    1.0630   -3.2223 C   0  0  0  0  0  0  0  0  0  0  0  0
    4.2614    0.4932   -1.9310 C   0  0  0  0  0  0  0  0  0  0  0  0
    3.4922   -0.5353   -1.6235 C   0  0  0  0  0  0  0  0  0  0  0  0
    3.0067   -1.2666   -2.6718 C   0  0  0  0  0  0  0  0  0  0  0  0
    3.1768   -0.8429   -3.9678 C   0  0  0  0  0  0  0  0  0  0  0  0
    1.0139   -0.0915   -7.3650 O   0  0  0  0  0  0  0  0  0  0  0  0
    2.4708   -0.1784   -3.9339 C   0  0  0  0  0  0  0  0  0  0  0  0
    2.0790   -0.2927   -2.6219 C   0  0  0  0  0  0  0  0  0  0  0  0
    0.5959   -0.2478    1.0049 H   0  0  0  0  0  0  0  0  0  0  0  0
    0.5959    1.0622   -0.1514 H   0  0  0  0  0  0  0  0  0  0  0  0
    2.0225    0.0734    0.0486 H   0  0  0  0  0  0  0  0  0  0  0  0
   -1.2064   -0.6823   -3.0616 H   0  0  0  0  0  0  0  0  0  0  0  0
   -0.3143   -0.9779   -5.3921 H   0  0  0  0  0  0  0  0  0  0  0  0
    3.5453    0.6326   -7.7339 H   0  0  0  0  0  0  0  0  0  0  0  0
    4.7602    2.0397   -3.4000 H   0  0  0  0  0  0  0  0  0  0  0  0
    4.8503    0.9256   -1.1494 H   0  0  0  0  0  0  0  0  0  0  0  0
    3.2612   -0.7830   -0.6085 H   0  0  0  0  0  0  0  0  0  0  0  0
    2.4869   -2.1820   -2.4803 H   0  0  0  0  0  0  0  0  0  0  0  0
    3.5019   -0.0078   -4.1633 H   0  0  0  0  0  0  0  0  0  0  0  0
    2.7930   -0.1386   -1.8400 H   0  0  0  0  0  0  0  0  0  0  0  0
  1  2  1  0  0  0  0
  1 20  1  0  0  0  0
  1 21  1  0  0  0  0
  1 22  1  0  0  0  0
  2  3  1  0  0  0  0
  3  4  1  0  0  0  0
  3 19  2  0  0  0  0
  4  5  2  0  0  0  0
  4 23  1  0  0  0  0
  5  6  1  0  0  0  0
  5 24  1  0  0  0  0
  6  7  1  0  0  0  0
  6 18  2  0  0  0  0
  7  8  2  0  0  0  0
  7 17  1  0  0  0  0
  8  9  1  0  0  0  0
  8 25  1  0  0  0  0
  9 10  2  0  0  0  0
  9 11  1  0  0  0  0
 11 12  1  0  0  0  0
 11 16  2  0  0  0  0
 12 13  2  0  0  0  0
 12 26  1  0  0  0  0
 13 14  1  0  0  0  0
 13 27  1  0  0  0  0
 14 15  2  0  0  0  0
 14 28  1  0  0  0  0
 15 16  1  0  0  0  0
 15 29  1  0  0  0  0
 16 17  1  0  0  0  0
 18 19  1  0  0  0  0
 18 30  1  0  0  0  0
 19 31  1  0  0  0  0
M  END
