
 OpenBabel09262515243D

 31 33  0  0  0  0  0  0  0  0999 V2000
    0.9385    0.0441    0.0654 C   0  0  0  0  0  0  0  0  0  0  0  0
    0.4652   -0.3708   -1.2075 O   0  0  0  0  0  0  0  0  0  0  0  0
    0.8082    0.3708   -2.3688 C   0  0  0  0  0  0  0  0  0  0  0  0
   -0.1469    0.5006   -3.3544 C   0  0  0  0  0  0  0  0  0  0  0  0
    0.1874    1.0741   -4.5733 C   0  0  0  0  0  0  0  0  0  0  0  0
    1.4714    1.5192   -4.8222 C   0  0  0  0  0  0  0  0  0  0  0  0
    2.4141    1.3709   -3.8168 C   0  0  0  0  0  0  0  0  0  0  0  0
    2.1181    0.8138   -2.5895 C   0  0  0  0  0  0  0  0  0  0  0  0
    3.1623    0.6808   -1.5425 C   0  0  0  0  0  0  0  0  0  0  0  0
    2.8595    0.1764   -0.4590 O   0  0  0  0  0  0  0  0  0  0  0  0
    4.4844    1.1448   -1.9123 C   0  0  0  0  0  0  0  0  0  0  0  0
    4.6862    1.6529   -3.2146 C   0  0  0  0  0  0  0  0  0  0  0  0
    3.6929    1.8061   -4.1150 O   0  0  0  0  0  0  0  0  0  0  0  0
    6.0960    2.0477   -3.6233 C   0  0  0  0  0  0  0  0  0  0  0  0
    6.3599    3.3559   -3.9939 C   0  0  0  0  0  0  0  0  0  0  0  0
    7.6171    3.5323   -4.6188 C   0  0  0  0  0  0  0  0  0  0  0  0
    8.6135    2.6681   -4.5538 C   0  0  0  0  0  0  0  0  0  0  0  0
    8.3009    1.4114   -4.1151 C   0  0  0  0  0  0  0  0  0  0  0  0
    7.0540    1.1283   -3.6121 C   0  0  0  0  0  0  0  0  0  0  0  0
    0.5819   -0.6303    0.8157 H   0  0  0  0  0  0  0  0  0  0  0  0
    0.5819    1.0310    0.2742 H   0  0  0  0  0  0  0  0  0  0  0  0
    2.0085    0.0441    0.0654 H   0  0  0  0  0  0  0  0  0  0  0  0
   -1.1458    0.1592   -3.1798 H   0  0  0  0  0  0  0  0  0  0  0  0
   -0.5608    1.1730   -5.3318 H   0  0  0  0  0  0  0  0  0  0  0  0
    1.7298    1.9639   -5.7605 H   0  0  0  0  0  0  0  0  0  0  0  0
    5.2923    1.1032   -1.2120 H   0  0  0  0  0  0  0  0  0  0  0  0
    5.6752    4.1603   -3.8232 H   0  0  0  0  0  0  0  0  0  0  0  0
    7.7711    4.4281   -5.1833 H   0  0  0  0  0  0  0  0  0  0  0  0
    9.6118    2.9368   -4.8297 H   0  0  0  0  0  0  0  0  0  0  0  0
    9.0380    0.6372   -4.1641 H   0  0  0  0  0  0  0  0  0  0  0  0
    6.8532    0.1582   -3.2078 H   0  0  0  0  0  0  0  0  0  0  0  0
  1  2  1  0  0  0  0
  1 20  1  0  0  0  0
  1 21  1  0  0  0  0
  1 22  1  0  0  0  0
  2  3  1  0  0  0  0
  3  4  2  0  0  0  0
  3  8  1  0  0  0  0
  4  5  1  0  0  0  0
  4 23  1  0  0  0  0
  5  6  2  0  0  0  0
  5 24  1  0  0  0  0
  6  7  1  0  0  0  0
  6 25  1  0  0  0  0
  7  8  2  0  0  0  0
  7 13  1  0  0  0  0
  8  9  1  0  0  0  0
  9 10  2  0  0  0  0
  9 11  1  0  0  0  0
 11 12  2  0  0  0  0
 11 26  1  0  0  0  0
 12 13  1  0  0  0  0
 12 14  1  0  0  0  0
 14 15  2  0  0  0  0
 14 19  1  0  0  0  0
 15 16  1  0  0  0  0
 15 27  1  0  0  0  0
 16 17  2  0  0  0  0
 16 28  1  0  0  0  0
 17 18  1  0  0  0  0
 17 29  1  0  0  0  0
 18 19  2  0  0  0  0
 18 30  1  0  0  0  0
 19 31  1  0  0  0  0
M  END
