
 OpenBabel09262515243D

 35 37  0  0  0  0  0  0  0  0999 V2000
   -1.7250    2.0220    0.0060 O   0  0  0  0  0  0  0  0  0  0  0  0
   -1.3990    0.8330    0.0140 C   0  0  0  0  0  0  0  0  0  0  0  0
   -2.3160   -0.2890    0.0000 C   0  0  0  0  0  0  0  0  0  0  0  0
   -1.7870   -1.5980   -0.0420 C   0  0  0  0  0  0  0  0  0  0  0  0
   -2.7565   -2.7634   -0.1527 C   0  0  0  0  0  0  0  0  0  0  0  0
   -2.7753   -3.7228    0.8463 C   0  0  0  0  0  0  0  0  0  0  0  0
   -3.4908   -4.8941    0.5028 C   0  0  0  0  0  0  0  0  0  0  0  0
   -4.3635   -4.9761   -0.4850 C   0  0  0  0  0  0  0  0  0  0  0  0
   -4.3408   -3.9623   -1.4021 C   0  0  0  0  0  0  0  0  0  0  0  0
   -3.5677   -2.8444   -1.2008 C   0  0  0  0  0  0  0  0  0  0  0  0
   -0.4660   -1.8680    0.0110 O   0  0  0  0  0  0  0  0  0  0  0  0
    0.4530   -0.8340    0.0160 C   0  0  0  0  0  0  0  0  0  0  0  0
    1.7880   -1.2070    0.0160 C   0  0  0  0  0  0  0  0  0  0  0  0
    2.7380   -0.2040   -0.0040 C   0  0  0  0  0  0  0  0  0  0  0  0
    4.1161   -0.5463   -0.0083 O   0  0  0  0  0  0  0  0  0  0  0  0
    5.1016    0.4759   -0.0287 C   0  0  0  0  0  0  0  0  0  0  0  0
    2.3660    1.1330   -0.0200 C   0  0  0  0  0  0  0  0  0  0  0  0
    1.0310    1.4770   -0.0130 C   0  0  0  0  0  0  0  0  0  0  0  0
    0.6547    2.8462   -0.0282 O   0  0  0  0  0  0  0  0  0  0  0  0
   -0.7192    3.2050   -0.0210 C   0  0  0  0  0  0  0  0  0  0  0  0
    0.0440    0.4840    0.0090 C   0  0  0  0  0  0  0  0  0  0  0  0
   -3.3737   -0.1289    0.0211 H   0  0  0  0  0  0  0  0  0  0  0  0
   -2.2925   -3.5901    1.7919 H   0  0  0  0  0  0  0  0  0  0  0  0
   -3.3125   -5.7747    1.0839 H   0  0  0  0  0  0  0  0  0  0  0  0
   -5.0513   -5.7920   -0.5633 H   0  0  0  0  0  0  0  0  0  0  0  0
   -4.9337   -4.0406   -2.2894 H   0  0  0  0  0  0  0  0  0  0  0  0
   -3.6198   -2.0318   -1.8949 H   0  0  0  0  0  0  0  0  0  0  0  0
    2.0735   -2.2381    0.0310 H   0  0  0  0  0  0  0  0  0  0  0  0
    4.9802    1.0706   -0.9099 H   0  0  0  0  0  0  0  0  0  0  0  0
    4.9916    1.0947    0.8372 H   0  0  0  0  0  0  0  0  0  0  0  0
    6.0754    0.0325   -0.0290 H   0  0  0  0  0  0  0  0  0  0  0  0
    3.1152    1.8967   -0.0378 H   0  0  0  0  0  0  0  0  0  0  0  0
   -1.1993    2.7954   -0.8851 H   0  0  0  0  0  0  0  0  0  0  0  0
   -1.1841    2.8189    0.8620 H   0  0  0  0  0  0  0  0  0  0  0  0
   -0.8094    4.2711   -0.0346 H   0  0  0  0  0  0  0  0  0  0  0  0
  1  2  2  0  0  0  0
  2  3  1  0  0  0  0
  2 21  1  0  0  0  0
  3  4  2  0  0  0  0
  3 22  1  0  0  0  0
  4  5  1  0  0  0  0
  4 11  1  0  0  0  0
  5  6  2  0  0  0  0
  5 10  1  0  0  0  0
  6  7  1  0  0  0  0
  6 23  1  0  0  0  0
  7  8  2  0  0  0  0
  7 24  1  0  0  0  0
  8  9  1  0  0  0  0
  8 25  1  0  0  0  0
  9 10  2  0  0  0  0
  9 26  1  0  0  0  0
 10 27  1  0  0  0  0
 11 12  1  0  0  0  0
 12 13  2  0  0  0  0
 12 21  1  0  0  0  0
 13 14  1  0  0  0  0
 13 28  1  0  0  0  0
 14 15  1  0  0  0  0
 14 17  2  0  0  0  0
 15 16  1  0  0  0  0
 16 29  1  0  0  0  0
 16 30  1  0  0  0  0
 16 31  1  0  0  0  0
 17 18  1  0  0  0  0
 17 32  1  0  0  0  0
 18 19  1  0  0  0  0
 18 21  2  0  0  0  0
 19 20  1  0  0  0  0
 20 33  1  0  0  0  0
 20 34  1  0  0  0  0
 20 35  1  0  0  0  0
M  END
