
 OpenBabel09262515243D

 32 33  0  0  0  0  0  0  0  0999 V2000
    0.9977    0.0427   -0.0904 C   0  0  0  0  0  0  0  0  0  0  0  0
    0.5243    1.2641   -0.6386 O   0  0  0  0  0  0  0  0  0  0  0  0
    0.8674    2.4979   -0.0250 C   0  0  0  0  0  0  0  0  0  0  0  0
   -0.0658    3.5187    0.0500 C   0  0  0  0  0  0  0  0  0  0  0  0
    0.4999    4.7982    0.2622 C   0  0  0  0  0  0  0  0  0  0  0  0
    1.7241    5.0110    0.7095 C   0  0  0  0  0  0  0  0  0  0  0  0
    2.1594    6.3684    1.2369 C   0  0  0  0  0  0  0  0  0  0  0  0
    1.2784    7.4048    1.2569 C   0  0  0  0  0  0  0  0  0  0  0  0
   -0.1413    7.2053    0.7519 C   0  0  0  0  0  0  0  0  0  0  0  0
   -0.7758    8.1831    0.0037 C   0  0  0  0  0  0  0  0  0  0  0  0
   -2.1834    8.0469   -0.0419 C   0  0  0  0  0  0  0  0  0  0  0  0
   -2.9440    9.1776   -0.4411 O   0  0  0  0  0  0  0  0  0  0  0  0
   -2.8391    6.9413    0.2611 C   0  0  0  0  0  0  0  0  0  0  0  0
   -2.1371    5.9850    0.9410 C   0  0  0  0  0  0  0  0  0  0  0  0
   -2.8172    4.8468    1.4494 O   0  0  0  0  0  0  0  0  0  0  0  0
   -0.7832    6.1094    1.1393 C   0  0  0  0  0  0  0  0  0  0  0  0
    2.5790    3.9445    0.6725 C   0  0  0  0  0  0  0  0  0  0  0  0
    2.1277    2.6881    0.3474 C   0  0  0  0  0  0  0  0  0  0  0  0
    0.6410   -0.7752   -0.6809 H   0  0  0  0  0  0  0  0  0  0  0  0
    0.6410   -0.0597    0.9132 H   0  0  0  0  0  0  0  0  0  0  0  0
    2.0677    0.0427   -0.0904 H   0  0  0  0  0  0  0  0  0  0  0  0
   -1.1190    3.3547   -0.0441 H   0  0  0  0  0  0  0  0  0  0  0  0
   -0.1064    5.6528    0.0453 H   0  0  0  0  0  0  0  0  0  0  0  0
    3.1588    6.5088    1.5924 H   0  0  0  0  0  0  0  0  0  0  0  0
    1.5849    8.3604    1.6282 H   0  0  0  0  0  0  0  0  0  0  0  0
   -0.2493    8.9701   -0.4946 H   0  0  0  0  0  0  0  0  0  0  0  0
   -3.9413    9.1191   -0.4852 H   0  0  0  0  0  0  0  0  0  0  0  0
   -3.8644    6.8014   -0.0108 H   0  0  0  0  0  0  0  0  0  0  0  0
   -2.3108    4.1430    1.9477 H   0  0  0  0  0  0  0  0  0  0  0  0
   -0.2413    5.3161    1.6103 H   0  0  0  0  0  0  0  0  0  0  0  0
    3.6142    4.0904    0.9001 H   0  0  0  0  0  0  0  0  0  0  0  0
    2.7979    1.8554    0.3947 H   0  0  0  0  0  0  0  0  0  0  0  0
  1  2  1  0  0  0  0
  1 19  1  0  0  0  0
  1 20  1  0  0  0  0
  1 21  1  0  0  0  0
  2  3  1  0  0  0  0
  3  4  1  0  0  0  0
  3 18  2  0  0  0  0
  4  5  2  0  0  0  0
  4 22  1  0  0  0  0
  5  6  1  0  0  0  0
  5 23  1  0  0  0  0
  6  7  1  0  0  0  0
  6 17  2  0  0  0  0
  7  8  2  0  0  0  0
  7 24  1  0  0  0  0
  8  9  1  0  0  0  0
  8 25  1  0  0  0  0
  9 10  1  0  0  0  0
  9 16  2  0  0  0  0
 10 11  2  0  0  0  0
 10 26  1  0  0  0  0
 11 12  1  0  0  0  0
 11 13  1  0  0  0  0
 12 27  1  0  0  0  0
 13 14  2  0  0  0  0
 13 28  1  0  0  0  0
 14 15  1  0  0  0  0
 14 16  1  0  0  0  0
 15 29  1  0  0  0  0
 16 30  1  0  0  0  0
 17 18  1  0  0  0  0
 17 31  1  0  0  0  0
 18 32  1  0  0  0  0
M  END
