
 OpenBabel09262515243D

 44 45  0  0  0  0  0  0  0  0999 V2000
    0.9429   -0.0572    0.0589 O   0  0  0  0  0  0  0  0  0  0  0  0
    2.2138   -0.0572    0.0589 C   0  0  0  0  0  0  0  0  0  0  0  0
    2.9738    1.1094   -0.5509 C   0  0  0  0  0  0  0  0  0  0  0  0
    3.8477    1.7557    0.5116 C   0  0  0  0  0  0  0  0  0  0  0  0
    4.8355    0.7319    1.0469 C   0  0  0  0  0  0  0  0  0  0  0  0
    5.7093    0.2283   -0.0903 C   0  0  0  0  0  0  0  0  0  0  0  0
    6.4693    1.3948   -0.7001 C   0  0  0  0  0  0  0  0  0  0  0  0
    7.5189    1.2350   -1.5781 C   0  0  0  0  0  0  0  0  0  0  0  0
    8.1245    2.3394   -2.1866 C   0  0  0  0  0  0  0  0  0  0  0  0
    7.6097    3.6165   -1.8821 C   0  0  0  0  0  0  0  0  0  0  0  0
    8.1166    4.7387   -2.4412 O   0  0  0  0  0  0  0  0  0  0  0  0
    6.5817    3.7651   -0.9820 C   0  0  0  0  0  0  0  0  0  0  0  0
    6.0062    2.6527   -0.3989 C   0  0  0  0  0  0  0  0  0  0  0  0
    2.9738   -1.2237    0.6688 C   0  0  0  0  0  0  0  0  0  0  0  0
    2.6066   -1.3551    2.1379 C   0  0  0  0  0  0  0  0  0  0  0  0
    1.1122   -1.6013    2.2666 C   0  0  0  0  0  0  0  0  0  0  0  0
    0.2432   -0.5346    2.3355 C   0  0  0  0  0  0  0  0  0  0  0  0
   -1.1370   -0.7346    2.4430 C   0  0  0  0  0  0  0  0  0  0  0  0
   -1.6046   -2.0649    2.4597 C   0  0  0  0  0  0  0  0  0  0  0  0
   -2.9235   -2.3535    2.5372 O   0  0  0  0  0  0  0  0  0  0  0  0
   -0.7255   -3.1209    2.4202 C   0  0  0  0  0  0  0  0  0  0  0  0
    0.6319   -2.8876    2.3142 C   0  0  0  0  0  0  0  0  0  0  0  0
    3.5890    0.7549   -1.3514 H   0  0  0  0  0  0  0  0  0  0  0  0
    2.2785    1.8301   -0.9277 H   0  0  0  0  0  0  0  0  0  0  0  0
    4.3827    2.5769    0.0823 H   0  0  0  0  0  0  0  0  0  0  0  0
    3.2326    2.1102    1.3121 H   0  0  0  0  0  0  0  0  0  0  0  0
    5.4506    1.1869    1.7949 H   0  0  0  0  0  0  0  0  0  0  0  0
    4.3005   -0.0893    1.4762 H   0  0  0  0  0  0  0  0  0  0  0  0
    6.4047   -0.4925    0.2865 H   0  0  0  0  0  0  0  0  0  0  0  0
    5.0942   -0.2267   -0.8383 H   0  0  0  0  0  0  0  0  0  0  0  0
    7.8764    0.2508   -1.7979 H   0  0  0  0  0  0  0  0  0  0  0  0
    8.9484    2.2195   -2.8586 H   0  0  0  0  0  0  0  0  0  0  0  0
    8.8653    4.6743   -3.1010 H   0  0  0  0  0  0  0  0  0  0  0  0
    6.2267    4.7432   -0.7326 H   0  0  0  0  0  0  0  0  0  0  0  0
    5.1964    2.7713    0.2903 H   0  0  0  0  0  0  0  0  0  0  0  0
    2.7153   -2.1257    0.1545 H   0  0  0  0  0  0  0  0  0  0  0  0
    4.0258   -1.0505    0.5782 H   0  0  0  0  0  0  0  0  0  0  0  0
    3.1416   -2.1763    2.5672 H   0  0  0  0  0  0  0  0  0  0  0  0
    2.8651   -0.4531    2.6522 H   0  0  0  0  0  0  0  0  0  0  0  0
    0.6302    0.4626    2.3063 H   0  0  0  0  0  0  0  0  0  0  0  0
   -1.8134    0.0917    2.5100 H   0  0  0  0  0  0  0  0  0  0  0  0
   -3.5962   -1.6142    2.5681 H   0  0  0  0  0  0  0  0  0  0  0  0
   -1.0930   -4.1245    2.4716 H   0  0  0  0  0  0  0  0  0  0  0  0
    1.3122   -3.7122    2.2689 H   0  0  0  0  0  0  0  0  0  0  0  0
  1  2  2  0  0  0  0
  2  3  1  0  0  0  0
  2 14  1  0  0  0  0
  3  4  1  0  0  0  0
  3 23  1  0  0  0  0
  3 24  1  0  0  0  0
  4  5  1  0  0  0  0
  4 25  1  0  0  0  0
  4 26  1  0  0  0  0
  5  6  1  0  0  0  0
  5 27  1  0  0  0  0
  5 28  1  0  0  0  0
  6  7  1  0  0  0  0
  6 29  1  0  0  0  0
  6 30  1  0  0  0  0
  7  8  1  0  0  0  0
  7 13  2  0  0  0  0
  8  9  2  0  0  0  0
  8 31  1  0  0  0  0
  9 10  1  0  0  0  0
  9 32  1  0  0  0  0
 10 11  1  0  0  0  0
 10 12  2  0  0  0  0
 11 33  1  0  0  0  0
 12 13  1  0  0  0  0
 12 34  1  0  0  0  0
 13 35  1  0  0  0  0
 14 15  1  0  0  0  0
 14 36  1  0  0  0  0
 14 37  1  0  0  0  0
 15 16  1  0  0  0  0
 15 38  1  0  0  0  0
 15 39  1  0  0  0  0
 16 17  1  0  0  0  0
 16 22  2  0  0  0  0
 17 18  2  0  0  0  0
 17 40  1  0  0  0  0
 18 19  1  0  0  0  0
 18 41  1  0  0  0  0
 19 20  1  0  0  0  0
 19 21  2  0  0  0  0
 20 42  1  0  0  0  0
 21 22  1  0  0  0  0
 21 43  1  0  0  0  0
 22 44  1  0  0  0  0
M  END
