
 OpenBabel09262515243D

 35 36  0  0  0  0  0  0  0  0999 V2000
    1.0691   -0.0480   -0.0541 C   0  0  0  0  0  0  0  0  0  0  0  0
    0.5957   -1.2002   -0.7359 O   0  0  0  0  0  0  0  0  0  0  0  0
    0.9388   -1.4102   -2.0978 C   0  0  0  0  0  0  0  0  0  0  0  0
   -0.0572   -1.7648   -2.9927 C   0  0  0  0  0  0  0  0  0  0  0  0
    0.4281   -2.1843   -4.2539 C   0  0  0  0  0  0  0  0  0  0  0  0
   -0.5158   -2.9708   -5.1488 C   0  0  0  0  0  0  0  0  0  0  0  0
   -1.7791   -3.2486   -4.7275 C   0  0  0  0  0  0  0  0  0  0  0  0
   -2.7230   -4.0352   -5.6224 C   0  0  0  0  0  0  0  0  0  0  0  0
   -4.0166   -3.6103   -5.8768 C   0  0  0  0  0  0  0  0  0  0  0  0
   -4.8087   -4.5627   -6.5606 C   0  0  0  0  0  0  0  0  0  0  0  0
   -4.3283   -5.5973   -7.2261 C   0  0  0  0  0  0  0  0  0  0  0  0
   -5.1239   -6.3300   -8.1461 O   0  0  0  0  0  0  0  0  0  0  0  0
   -3.0235   -5.9249   -6.9815 C   0  0  0  0  0  0  0  0  0  0  0  0
   -2.2225   -5.1125   -6.2159 C   0  0  0  0  0  0  0  0  0  0  0  0
    1.6440   -1.9400   -4.7075 C   0  0  0  0  0  0  0  0  0  0  0  0
    2.5655   -1.5272   -3.7856 C   0  0  0  0  0  0  0  0  0  0  0  0
    3.9293   -1.4102   -4.1633 O   0  0  0  0  0  0  0  0  0  0  0  0
    4.8948   -0.9824   -3.2139 C   0  0  0  0  0  0  0  0  0  0  0  0
    2.1908   -1.2238   -2.4989 C   0  0  0  0  0  0  0  0  0  0  0  0
    0.7124   -0.0590    0.9547 H   0  0  0  0  0  0  0  0  0  0  0  0
    0.7124    0.8310   -0.5490 H   0  0  0  0  0  0  0  0  0  0  0  0
    2.1391   -0.0480   -0.0541 H   0  0  0  0  0  0  0  0  0  0  0  0
   -1.0990   -1.7251   -2.7521 H   0  0  0  0  0  0  0  0  0  0  0  0
   -0.1865   -3.3060   -6.1101 H   0  0  0  0  0  0  0  0  0  0  0  0
   -2.1084   -2.9134   -3.7662 H   0  0  0  0  0  0  0  0  0  0  0  0
   -4.3835   -2.6491   -5.5829 H   0  0  0  0  0  0  0  0  0  0  0  0
   -5.8709   -4.4359   -6.5368 H   0  0  0  0  0  0  0  0  0  0  0  0
   -4.7325   -7.1092   -8.6357 H   0  0  0  0  0  0  0  0  0  0  0  0
   -2.6205   -6.8269   -7.3923 H   0  0  0  0  0  0  0  0  0  0  0  0
   -1.1860   -5.3500   -6.0968 H   0  0  0  0  0  0  0  0  0  0  0  0
    1.8946   -2.0588   -5.7409 H   0  0  0  0  0  0  0  0  0  0  0  0
    4.6395   -0.0050   -2.8613 H   0  0  0  0  0  0  0  0  0  0  0  0
    4.9123   -1.6654   -2.3904 H   0  0  0  0  0  0  0  0  0  0  0  0
    5.8601   -0.9545   -3.6747 H   0  0  0  0  0  0  0  0  0  0  0  0
    2.9145   -0.8339   -1.8140 H   0  0  0  0  0  0  0  0  0  0  0  0
  1  2  1  0  0  0  0
  1 20  1  0  0  0  0
  1 21  1  0  0  0  0
  1 22  1  0  0  0  0
  2  3  1  0  0  0  0
  3  4  1  0  0  0  0
  3 19  2  0  0  0  0
  4  5  2  0  0  0  0
  4 23  1  0  0  0  0
  5  6  1  0  0  0  0
  5 15  1  0  0  0  0
  6  7  2  0  0  0  0
  6 24  1  0  0  0  0
  7  8  1  0  0  0  0
  7 25  1  0  0  0  0
  8  9  1  0  0  0  0
  8 14  2  0  0  0  0
  9 10  2  0  0  0  0
  9 26  1  0  0  0  0
 10 11  1  0  0  0  0
 10 27  1  0  0  0  0
 11 12  1  0  0  0  0
 11 13  2  0  0  0  0
 12 28  1  0  0  0  0
 13 14  1  0  0  0  0
 13 29  1  0  0  0  0
 14 30  1  0  0  0  0
 15 16  2  0  0  0  0
 15 31  1  0  0  0  0
 16 17  1  0  0  0  0
 16 19  1  0  0  0  0
 17 18  1  0  0  0  0
 18 32  1  0  0  0  0
 18 33  1  0  0  0  0
 18 34  1  0  0  0  0
 19 35  1  0  0  0  0
M  END
