
 OpenBabel09262515243D

 34 35  0  0  0  0  0  0  0  0999 V2000
    0.9744   -0.0797   -0.0547 C   0  0  0  0  0  0  0  0  0  0  0  0
    0.5011    1.1017    0.5751 O   0  0  0  0  0  0  0  0  0  0  0  0
   -0.3307    1.1032    1.6414 C   0  0  0  0  0  0  0  0  0  0  0  0
   -0.6025    2.3142    2.2320 C   0  0  0  0  0  0  0  0  0  0  0  0
   -1.4661    2.3809    3.3082 C   0  0  0  0  0  0  0  0  0  0  0  0
   -1.7797    3.7251    3.9447 C   0  0  0  0  0  0  0  0  0  0  0  0
   -1.2103    4.8592    3.4544 C   0  0  0  0  0  0  0  0  0  0  0  0
   -1.5238    6.2035    4.0909 C   0  0  0  0  0  0  0  0  0  0  0  0
   -0.9919    7.2629    3.6329 O   0  0  0  0  0  0  0  0  0  0  0  0
   -2.4736    6.2806    5.2752 C   0  0  0  0  0  0  0  0  0  0  0  0
   -2.3550    5.3795    6.3104 C   0  0  0  0  0  0  0  0  0  0  0  0
   -3.2103    5.4346    7.4159 C   0  0  0  0  0  0  0  0  0  0  0  0
   -4.1831    6.4553    7.4385 C   0  0  0  0  0  0  0  0  0  0  0  0
   -5.0371    6.5999    8.4772 O   0  0  0  0  0  0  0  0  0  0  0  0
   -4.3107    7.3300    6.3860 C   0  0  0  0  0  0  0  0  0  0  0  0
   -3.4492    7.2473    5.3093 C   0  0  0  0  0  0  0  0  0  0  0  0
   -2.0428    1.2374    3.8057 C   0  0  0  0  0  0  0  0  0  0  0  0
   -1.7547    0.0144    3.2410 C   0  0  0  0  0  0  0  0  0  0  0  0
   -0.8850   -0.0895    2.1504 C   0  0  0  0  0  0  0  0  0  0  0  0
   -0.5717   -1.3500    1.5765 O   0  0  0  0  0  0  0  0  0  0  0  0
    0.6177   -0.1138   -1.0630 H   0  0  0  0  0  0  0  0  0  0  0  0
    0.6177   -0.9358    0.4789 H   0  0  0  0  0  0  0  0  0  0  0  0
    2.0444   -0.0797   -0.0547 H   0  0  0  0  0  0  0  0  0  0  0  0
   -0.1449    3.2061    1.8579 H   0  0  0  0  0  0  0  0  0  0  0  0
   -2.4482    3.7794    4.7784 H   0  0  0  0  0  0  0  0  0  0  0  0
   -0.5417    4.8049    2.6208 H   0  0  0  0  0  0  0  0  0  0  0  0
   -1.5969    4.6256    6.2682 H   0  0  0  0  0  0  0  0  0  0  0  0
   -3.1294    4.7279    8.2153 H   0  0  0  0  0  0  0  0  0  0  0  0
   -4.9778    5.9841    9.2628 H   0  0  0  0  0  0  0  0  0  0  0  0
   -5.0780    8.0755    6.4006 H   0  0  0  0  0  0  0  0  0  0  0  0
   -3.5421    7.9392    4.4984 H   0  0  0  0  0  0  0  0  0  0  0  0
   -2.7175    1.2970    4.6340 H   0  0  0  0  0  0  0  0  0  0  0  0
   -2.2032   -0.8700    3.6430 H   0  0  0  0  0  0  0  0  0  0  0  0
    0.0524   -1.4032    0.7970 H   0  0  0  0  0  0  0  0  0  0  0  0
  1  2  1  0  0  0  0
  1 21  1  0  0  0  0
  1 22  1  0  0  0  0
  1 23  1  0  0  0  0
  2  3  1  0  0  0  0
  3  4  1  0  0  0  0
  3 19  2  0  0  0  0
  4  5  2  0  0  0  0
  4 24  1  0  0  0  0
  5  6  1  0  0  0  0
  5 17  1  0  0  0  0
  6  7  2  0  0  0  0
  6 25  1  0  0  0  0
  7  8  1  0  0  0  0
  7 26  1  0  0  0  0
  8  9  2  0  0  0  0
  8 10  1  0  0  0  0
 10 11  1  0  0  0  0
 10 16  2  0  0  0  0
 11 12  2  0  0  0  0
 11 27  1  0  0  0  0
 12 13  1  0  0  0  0
 12 28  1  0  0  0  0
 13 14  1  0  0  0  0
 13 15  2  0  0  0  0
 14 29  1  0  0  0  0
 15 16  1  0  0  0  0
 15 30  1  0  0  0  0
 16 31  1  0  0  0  0
 17 18  2  0  0  0  0
 17 32  1  0  0  0  0
 18 19  1  0  0  0  0
 18 33  1  0  0  0  0
 19 20  1  0  0  0  0
 20 34  1  0  0  0  0
M  END
