
 OpenBabel09262515243D

 44 45  0  0  0  0  0  0  0  0999 V2000
    1.0716    0.0698   -0.0009 C   0  0  0  0  0  0  0  0  0  0  0  0
    0.5983    0.0729    1.3379 O   0  0  0  0  0  0  0  0  0  0  0  0
    0.9413   -0.9900    2.2148 C   0  0  0  0  0  0  0  0  0  0  0  0
    0.0030   -1.4378    3.1300 C   0  0  0  0  0  0  0  0  0  0  0  0
    0.5612   -2.1267    4.2327 C   0  0  0  0  0  0  0  0  0  0  0  0
    1.7801   -2.6341    4.2598 C   0  0  0  0  0  0  0  0  0  0  0  0
    2.2045   -3.6428    5.3147 C   0  0  0  0  0  0  0  0  0  0  0  0
    1.3188   -4.0463    6.2652 C   0  0  0  0  0  0  0  0  0  0  0  0
    1.7432   -5.0550    7.3202 C   0  0  0  0  0  0  0  0  0  0  0  0
    0.9158   -5.4319    8.2082 O   0  0  0  0  0  0  0  0  0  0  0  0
    3.1571   -5.6129    7.3130 C   0  0  0  0  0  0  0  0  0  0  0  0
    3.3550   -6.9725    7.4885 C   0  0  0  0  0  0  0  0  0  0  0  0
    4.6989   -7.3266    7.7544 C   0  0  0  0  0  0  0  0  0  0  0  0
    4.9455   -8.6056    8.3199 O   0  0  0  0  0  0  0  0  0  0  0  0
    6.2761   -9.0106    8.6063 C   0  0  0  0  0  0  0  0  0  0  0  0
    5.7397   -6.5504    7.5131 C   0  0  0  0  0  0  0  0  0  0  0  0
    7.0651   -7.0598    7.4968 O   0  0  0  0  0  0  0  0  0  0  0  0
    8.1566   -6.1905    7.2331 C   0  0  0  0  0  0  0  0  0  0  0  0
    5.4724   -5.2299    7.2799 C   0  0  0  0  0  0  0  0  0  0  0  0
    6.5458   -4.3053    7.1829 O   0  0  0  0  0  0  0  0  0  0  0  0
    6.2797   -2.9316    6.9409 C   0  0  0  0  0  0  0  0  0  0  0  0
    4.1803   -4.7848    7.1382 C   0  0  0  0  0  0  0  0  0  0  0  0
    2.6399   -2.2033    3.2878 C   0  0  0  0  0  0  0  0  0  0  0  0
    2.1972   -1.4200    2.2494 C   0  0  0  0  0  0  0  0  0  0  0  0
    0.7150    0.9422   -0.5073 H   0  0  0  0  0  0  0  0  0  0  0  0
    0.7150   -0.8051   -0.5032 H   0  0  0  0  0  0  0  0  0  0  0  0
    2.1416    0.0698   -0.0009 H   0  0  0  0  0  0  0  0  0  0  0  0
   -1.0484   -1.2773    3.0137 H   0  0  0  0  0  0  0  0  0  0  0  0
   -0.0467   -2.2448    5.1053 H   0  0  0  0  0  0  0  0  0  0  0  0
    3.1998   -4.0355    5.3097 H   0  0  0  0  0  0  0  0  0  0  0  0
    0.3235   -3.6536    6.2703 H   0  0  0  0  0  0  0  0  0  0  0  0
    2.5634   -7.6899    7.4285 H   0  0  0  0  0  0  0  0  0  0  0  0
    6.8506   -9.0119    7.7036 H   0  0  0  0  0  0  0  0  0  0  0  0
    6.7133   -8.3297    9.3063 H   0  0  0  0  0  0  0  0  0  0  0  0
    6.2669   -9.9954    9.0246 H   0  0  0  0  0  0  0  0  0  0  0  0
    8.0366   -5.7510    6.2649 H   0  0  0  0  0  0  0  0  0  0  0  0
    8.1852   -5.4191    7.9740 H   0  0  0  0  0  0  0  0  0  0  0  0
    9.0703   -6.7466    7.2616 H   0  0  0  0  0  0  0  0  0  0  0  0
    5.7633   -2.8269    6.0096 H   0  0  0  0  0  0  0  0  0  0  0  0
    5.6730   -2.5412    7.7311 H   0  0  0  0  0  0  0  0  0  0  0  0
    7.2025   -2.3914    6.8997 H   0  0  0  0  0  0  0  0  0  0  0  0
    3.9969   -3.7616    6.8847 H   0  0  0  0  0  0  0  0  0  0  0  0
    3.6723   -2.4802    3.3366 H   0  0  0  0  0  0  0  0  0  0  0  0
    2.8705   -1.1540    1.4615 H   0  0  0  0  0  0  0  0  0  0  0  0
  1  2  1  0  0  0  0
  1 25  1  0  0  0  0
  1 26  1  0  0  0  0
  1 27  1  0  0  0  0
  2  3  1  0  0  0  0
  3  4  1  0  0  0  0
  3 24  2  0  0  0  0
  4  5  2  0  0  0  0
  4 28  1  0  0  0  0
  5  6  1  0  0  0  0
  5 29  1  0  0  0  0
  6  7  1  0  0  0  0
  6 23  2  0  0  0  0
  7  8  2  0  0  0  0
  7 30  1  0  0  0  0
  8  9  1  0  0  0  0
  8 31  1  0  0  0  0
  9 10  2  0  0  0  0
  9 11  1  0  0  0  0
 11 12  1  0  0  0  0
 11 22  2  0  0  0  0
 12 13  2  0  0  0  0
 12 32  1  0  0  0  0
 13 14  1  0  0  0  0
 13 16  1  0  0  0  0
 14 15  1  0  0  0  0
 15 33  1  0  0  0  0
 15 34  1  0  0  0  0
 15 35  1  0  0  0  0
 16 17  1  0  0  0  0
 16 19  2  0  0  0  0
 17 18  1  0  0  0  0
 18 36  1  0  0  0  0
 18 37  1  0  0  0  0
 18 38  1  0  0  0  0
 19 20  1  0  0  0  0
 19 22  1  0  0  0  0
 20 21  1  0  0  0  0
 21 39  1  0  0  0  0
 21 40  1  0  0  0  0
 21 41  1  0  0  0  0
 22 42  1  0  0  0  0
 23 24  1  0  0  0  0
 23 43  1  0  0  0  0
 24 44  1  0  0  0  0
M  END
