
 OpenBabel09262515243D

 34 35  0  0  0  0  0  0  0  0999 V2000
    1.0536    0.0229    0.0813 C   0  0  0  0  0  0  0  0  0  0  0  0
    0.5803   -1.0973   -0.6518 O   0  0  0  0  0  0  0  0  0  0  0  0
    0.9920   -2.3117   -0.2220 C   0  0  0  0  0  0  0  0  0  0  0  0
    0.6734   -3.4006   -0.9978 C   0  0  0  0  0  0  0  0  0  0  0  0
    1.0903   -4.6632   -0.6228 C   0  0  0  0  0  0  0  0  0  0  0  0
    1.8083   -4.8403    0.5350 C   0  0  0  0  0  0  0  0  0  0  0  0
    2.2733   -6.2316    0.9332 C   0  0  0  0  0  0  0  0  0  0  0  0
    1.9977   -7.2290    0.1954 O   0  0  0  0  0  0  0  0  0  0  0  0
    3.0678   -6.4299    2.2137 C   0  0  0  0  0  0  0  0  0  0  0  0
    3.3628   -5.3622    3.0034 C   0  0  0  0  0  0  0  0  0  0  0  0
    4.1574   -5.5605    4.2840 C   0  0  0  0  0  0  0  0  0  0  0  0
    5.2780   -6.3617    4.2770 C   0  0  0  0  0  0  0  0  0  0  0  0
    6.0247   -6.5672    5.4418 C   0  0  0  0  0  0  0  0  0  0  0  0
    5.5986   -5.9107    6.6149 C   0  0  0  0  0  0  0  0  0  0  0  0
    6.2720   -6.0318    7.7815 O   0  0  0  0  0  0  0  0  0  0  0  0
    4.4621   -5.1377    6.6160 C   0  0  0  0  0  0  0  0  0  0  0  0
    3.7477   -4.9559    5.4477 C   0  0  0  0  0  0  0  0  0  0  0  0
    2.1081   -3.7604    1.3361 C   0  0  0  0  0  0  0  0  0  0  0  0
    2.8409   -3.9620    2.5355 O   0  0  0  0  0  0  0  0  0  0  0  0
    1.7018   -2.4684    0.9865 C   0  0  0  0  0  0  0  0  0  0  0  0
    0.6969   -0.0334    1.0885 H   0  0  0  0  0  0  0  0  0  0  0  0
    0.6969    0.9234   -0.3736 H   0  0  0  0  0  0  0  0  0  0  0  0
    2.1236    0.0229    0.0813 H   0  0  0  0  0  0  0  0  0  0  0  0
    0.1019   -3.2703   -1.8929 H   0  0  0  0  0  0  0  0  0  0  0  0
    0.8529   -5.5068   -1.2368 H   0  0  0  0  0  0  0  0  0  0  0  0
    3.3952   -7.4093    2.4940 H   0  0  0  0  0  0  0  0  0  0  0  0
    3.0355   -4.3828    2.7232 H   0  0  0  0  0  0  0  0  0  0  0  0
    5.5819   -6.8342    3.3664 H   0  0  0  0  0  0  0  0  0  0  0  0
    6.8879   -7.1994    5.4427 H   0  0  0  0  0  0  0  0  0  0  0  0
    7.1039   -6.5853    7.8235 H   0  0  0  0  0  0  0  0  0  0  0  0
    4.1303   -4.6763    7.5227 H   0  0  0  0  0  0  0  0  0  0  0  0
    2.8717   -4.3415    5.4490 H   0  0  0  0  0  0  0  0  0  0  0  0
    3.0627   -3.1836    3.1228 H   0  0  0  0  0  0  0  0  0  0  0  0
    1.9215   -1.6294    1.6132 H   0  0  0  0  0  0  0  0  0  0  0  0
  1  2  1  0  0  0  0
  1 21  1  0  0  0  0
  1 22  1  0  0  0  0
  1 23  1  0  0  0  0
  2  3  1  0  0  0  0
  3  4  1  0  0  0  0
  3 20  2  0  0  0  0
  4  5  2  0  0  0  0
  4 24  1  0  0  0  0
  5  6  1  0  0  0  0
  5 25  1  0  0  0  0
  6  7  1  0  0  0  0
  6 18  2  0  0  0  0
  7  8  2  0  0  0  0
  7  9  1  0  0  0  0
  9 10  2  0  0  0  0
  9 26  1  0  0  0  0
 10 11  1  0  0  0  0
 10 27  1  0  0  0  0
 11 12  1  0  0  0  0
 11 17  2  0  0  0  0
 12 13  2  0  0  0  0
 12 28  1  0  0  0  0
 13 14  1  0  0  0  0
 13 29  1  0  0  0  0
 14 15  1  0  0  0  0
 14 16  2  0  0  0  0
 15 30  1  0  0  0  0
 16 17  1  0  0  0  0
 16 31  1  0  0  0  0
 17 32  1  0  0  0  0
 18 19  1  0  0  0  0
 18 20  1  0  0  0  0
 19 33  1  0  0  0  0
 20 34  1  0  0  0  0
M  END
